
---------- Begin Simulation Statistics ----------
simSeconds                                   0.855705                       # Number of seconds simulated (Second)
simTicks                                 855704858500                       # Number of ticks simulated (Tick)
finalTick                                855704858500                       # Number of ticks from beginning of simulation (restored from checkpoints and never reset) (Tick)
simFreq                                  1000000000000                       # The number of ticks per simulated second ((Tick/Second))
hostSeconds                                  24775.19                       # Real time elapsed on the host (Second)
hostTickRate                                 34538774                       # The number of ticks simulated per host second (ticks/s) ((Tick/Second))
hostMemory                                    8778020                       # Number of bytes of host memory used (Byte)
simInsts                                   1000000002                       # Number of instructions simulated (Count)
simOps                                     1740845239                       # Number of ops (including micro ops) simulated (Count)
hostInstRate                                    40363                       # Simulator instruction rate (inst/s) ((Count/Second))
hostOpRate                                      70266                       # Simulator op (including micro ops) rate (op/s) ((Count/Second))
system.clk_domain.clock                          1000                       # Clock period in ticks (Tick)
system.cpu.numCycles                       1711409718                       # Number of cpu cycles simulated (Cycle)
system.cpu.numWorkItemsStarted                      0                       # Number of work items this cpu started (Count)
system.cpu.numWorkItemsCompleted                    0                       # Number of work items this cpu completed (Count)
system.cpu.instsAdded                      3888589273                       # Number of instructions added to the IQ (excludes non-spec) (Count)
system.cpu.nonSpecInstsAdded                     6617                       # Number of non-speculative instructions added to the IQ (Count)
system.cpu.instsIssued                     3408025516                       # Number of instructions issued (Count)
system.cpu.squashedInstsIssued                4157276                       # Number of squashed instructions issued (Count)
system.cpu.squashedInstsExamined           2147750622                       # Number of squashed instructions iterated over during squash; mainly for profiling (Count)
system.cpu.squashedOperandsExamined        3251530027                       # Number of squashed operands that are examined and possibly removed from graph (Count)
system.cpu.squashedNonSpecRemoved                5492                       # Number of squashed non-spec instructions that were removed (Count)
system.cpu.numIssuedDist::samples          1711296287                       # Number of insts issued each cycle (Count)
system.cpu.numIssuedDist::mean               1.991488                       # Number of insts issued each cycle (Count)
system.cpu.numIssuedDist::stdev              2.353110                       # Number of insts issued each cycle (Count)
system.cpu.numIssuedDist::underflows                0      0.00%      0.00% # Number of insts issued each cycle (Count)
system.cpu.numIssuedDist::0                 822666781     48.07%     48.07% # Number of insts issued each cycle (Count)
system.cpu.numIssuedDist::1                 116422893      6.80%     54.88% # Number of insts issued each cycle (Count)
system.cpu.numIssuedDist::2                 133143703      7.78%     62.66% # Number of insts issued each cycle (Count)
system.cpu.numIssuedDist::3                 148809157      8.70%     71.35% # Number of insts issued each cycle (Count)
system.cpu.numIssuedDist::4                 168700584      9.86%     81.21% # Number of insts issued each cycle (Count)
system.cpu.numIssuedDist::5                 136983295      8.00%     89.21% # Number of insts issued each cycle (Count)
system.cpu.numIssuedDist::6                  99507571      5.81%     95.03% # Number of insts issued each cycle (Count)
system.cpu.numIssuedDist::7                  58374915      3.41%     98.44% # Number of insts issued each cycle (Count)
system.cpu.numIssuedDist::8                  26687388      1.56%    100.00% # Number of insts issued each cycle (Count)
system.cpu.numIssuedDist::overflows                 0      0.00%    100.00% # Number of insts issued each cycle (Count)
system.cpu.numIssuedDist::min_value                 0                       # Number of insts issued each cycle (Count)
system.cpu.numIssuedDist::max_value                 8                       # Number of insts issued each cycle (Count)
system.cpu.numIssuedDist::total            1711296287                       # Number of insts issued each cycle (Count)
system.cpu.statFuBusy::No_OpClass                   0      0.00%      0.00% # attempts to use FU when none available (Count)
system.cpu.statFuBusy::IntAlu                19351701     90.49%     90.49% # attempts to use FU when none available (Count)
system.cpu.statFuBusy::IntMult                      0      0.00%     90.49% # attempts to use FU when none available (Count)
system.cpu.statFuBusy::IntDiv                       0      0.00%     90.49% # attempts to use FU when none available (Count)
system.cpu.statFuBusy::FloatAdd                     0      0.00%     90.49% # attempts to use FU when none available (Count)
system.cpu.statFuBusy::FloatCmp                     0      0.00%     90.49% # attempts to use FU when none available (Count)
system.cpu.statFuBusy::FloatCvt                    82      0.00%     90.49% # attempts to use FU when none available (Count)
system.cpu.statFuBusy::FloatMult                    0      0.00%     90.49% # attempts to use FU when none available (Count)
system.cpu.statFuBusy::FloatMultAcc                 0      0.00%     90.49% # attempts to use FU when none available (Count)
system.cpu.statFuBusy::FloatDiv                     0      0.00%     90.49% # attempts to use FU when none available (Count)
system.cpu.statFuBusy::FloatMisc                    0      0.00%     90.49% # attempts to use FU when none available (Count)
system.cpu.statFuBusy::FloatSqrt                    0      0.00%     90.49% # attempts to use FU when none available (Count)
system.cpu.statFuBusy::SimdAdd                      0      0.00%     90.49% # attempts to use FU when none available (Count)
system.cpu.statFuBusy::SimdAddAcc                   0      0.00%     90.49% # attempts to use FU when none available (Count)
system.cpu.statFuBusy::SimdAlu                      8      0.00%     90.49% # attempts to use FU when none available (Count)
system.cpu.statFuBusy::SimdCmp                      0      0.00%     90.49% # attempts to use FU when none available (Count)
system.cpu.statFuBusy::SimdCvt                      2      0.00%     90.49% # attempts to use FU when none available (Count)
system.cpu.statFuBusy::SimdMisc                     1      0.00%     90.49% # attempts to use FU when none available (Count)
system.cpu.statFuBusy::SimdMult                     0      0.00%     90.49% # attempts to use FU when none available (Count)
system.cpu.statFuBusy::SimdMultAcc                  0      0.00%     90.49% # attempts to use FU when none available (Count)
system.cpu.statFuBusy::SimdShift                    0      0.00%     90.49% # attempts to use FU when none available (Count)
system.cpu.statFuBusy::SimdShiftAcc                 0      0.00%     90.49% # attempts to use FU when none available (Count)
system.cpu.statFuBusy::SimdDiv                      0      0.00%     90.49% # attempts to use FU when none available (Count)
system.cpu.statFuBusy::SimdSqrt                     0      0.00%     90.49% # attempts to use FU when none available (Count)
system.cpu.statFuBusy::SimdFloatAdd                 0      0.00%     90.49% # attempts to use FU when none available (Count)
system.cpu.statFuBusy::SimdFloatAlu                 0      0.00%     90.49% # attempts to use FU when none available (Count)
system.cpu.statFuBusy::SimdFloatCmp                 0      0.00%     90.49% # attempts to use FU when none available (Count)
system.cpu.statFuBusy::SimdFloatCvt                 0      0.00%     90.49% # attempts to use FU when none available (Count)
system.cpu.statFuBusy::SimdFloatDiv                 0      0.00%     90.49% # attempts to use FU when none available (Count)
system.cpu.statFuBusy::SimdFloatMisc                0      0.00%     90.49% # attempts to use FU when none available (Count)
system.cpu.statFuBusy::SimdFloatMult                0      0.00%     90.49% # attempts to use FU when none available (Count)
system.cpu.statFuBusy::SimdFloatMultAcc             0      0.00%     90.49% # attempts to use FU when none available (Count)
system.cpu.statFuBusy::SimdFloatSqrt                0      0.00%     90.49% # attempts to use FU when none available (Count)
system.cpu.statFuBusy::SimdReduceAdd                0      0.00%     90.49% # attempts to use FU when none available (Count)
system.cpu.statFuBusy::SimdReduceAlu                0      0.00%     90.49% # attempts to use FU when none available (Count)
system.cpu.statFuBusy::SimdReduceCmp                0      0.00%     90.49% # attempts to use FU when none available (Count)
system.cpu.statFuBusy::SimdFloatReduceAdd            0      0.00%     90.49% # attempts to use FU when none available (Count)
system.cpu.statFuBusy::SimdFloatReduceCmp            0      0.00%     90.49% # attempts to use FU when none available (Count)
system.cpu.statFuBusy::SimdAes                      0      0.00%     90.49% # attempts to use FU when none available (Count)
system.cpu.statFuBusy::SimdAesMix                   0      0.00%     90.49% # attempts to use FU when none available (Count)
system.cpu.statFuBusy::SimdSha1Hash                 0      0.00%     90.49% # attempts to use FU when none available (Count)
system.cpu.statFuBusy::SimdSha1Hash2                0      0.00%     90.49% # attempts to use FU when none available (Count)
system.cpu.statFuBusy::SimdSha256Hash               0      0.00%     90.49% # attempts to use FU when none available (Count)
system.cpu.statFuBusy::SimdSha256Hash2              0      0.00%     90.49% # attempts to use FU when none available (Count)
system.cpu.statFuBusy::SimdShaSigma2                0      0.00%     90.49% # attempts to use FU when none available (Count)
system.cpu.statFuBusy::SimdShaSigma3                0      0.00%     90.49% # attempts to use FU when none available (Count)
system.cpu.statFuBusy::SimdPredAlu                  0      0.00%     90.49% # attempts to use FU when none available (Count)
system.cpu.statFuBusy::MemRead                1963870      9.18%     99.68% # attempts to use FU when none available (Count)
system.cpu.statFuBusy::MemWrite                 67118      0.31%     99.99% # attempts to use FU when none available (Count)
system.cpu.statFuBusy::FloatMemRead              1658      0.01%    100.00% # attempts to use FU when none available (Count)
system.cpu.statFuBusy::FloatMemWrite              546      0.00%    100.00% # attempts to use FU when none available (Count)
system.cpu.statFuBusy::IprAccess                    0      0.00%    100.00% # attempts to use FU when none available (Count)
system.cpu.statFuBusy::InstPrefetch                 0      0.00%    100.00% # attempts to use FU when none available (Count)
system.cpu.statIssuedInstType_0::No_OpClass       990413      0.03%      0.03% # Number of instructions issued per FU type, per thread (Count)
system.cpu.statIssuedInstType_0::IntAlu    2659871184     78.05%     78.08% # Number of instructions issued per FU type, per thread (Count)
system.cpu.statIssuedInstType_0::IntMult      6524788      0.19%     78.27% # Number of instructions issued per FU type, per thread (Count)
system.cpu.statIssuedInstType_0::IntDiv         33695      0.00%     78.27% # Number of instructions issued per FU type, per thread (Count)
system.cpu.statIssuedInstType_0::FloatAdd        17484      0.00%     78.27% # Number of instructions issued per FU type, per thread (Count)
system.cpu.statIssuedInstType_0::FloatCmp            0      0.00%     78.27% # Number of instructions issued per FU type, per thread (Count)
system.cpu.statIssuedInstType_0::FloatCvt        36620      0.00%     78.27% # Number of instructions issued per FU type, per thread (Count)
system.cpu.statIssuedInstType_0::FloatMult            0      0.00%     78.27% # Number of instructions issued per FU type, per thread (Count)
system.cpu.statIssuedInstType_0::FloatMultAcc            0      0.00%     78.27% # Number of instructions issued per FU type, per thread (Count)
system.cpu.statIssuedInstType_0::FloatDiv            0      0.00%     78.27% # Number of instructions issued per FU type, per thread (Count)
system.cpu.statIssuedInstType_0::FloatMisc            0      0.00%     78.27% # Number of instructions issued per FU type, per thread (Count)
system.cpu.statIssuedInstType_0::FloatSqrt            0      0.00%     78.27% # Number of instructions issued per FU type, per thread (Count)
system.cpu.statIssuedInstType_0::SimdAdd            0      0.00%     78.27% # Number of instructions issued per FU type, per thread (Count)
system.cpu.statIssuedInstType_0::SimdAddAcc            0      0.00%     78.27% # Number of instructions issued per FU type, per thread (Count)
system.cpu.statIssuedInstType_0::SimdAlu           70      0.00%     78.27% # Number of instructions issued per FU type, per thread (Count)
system.cpu.statIssuedInstType_0::SimdCmp            0      0.00%     78.27% # Number of instructions issued per FU type, per thread (Count)
system.cpu.statIssuedInstType_0::SimdCvt           60      0.00%     78.27% # Number of instructions issued per FU type, per thread (Count)
system.cpu.statIssuedInstType_0::SimdMisc       399016      0.01%     78.28% # Number of instructions issued per FU type, per thread (Count)
system.cpu.statIssuedInstType_0::SimdMult            0      0.00%     78.28% # Number of instructions issued per FU type, per thread (Count)
system.cpu.statIssuedInstType_0::SimdMultAcc            0      0.00%     78.28% # Number of instructions issued per FU type, per thread (Count)
system.cpu.statIssuedInstType_0::SimdShift            0      0.00%     78.28% # Number of instructions issued per FU type, per thread (Count)
system.cpu.statIssuedInstType_0::SimdShiftAcc            0      0.00%     78.28% # Number of instructions issued per FU type, per thread (Count)
system.cpu.statIssuedInstType_0::SimdDiv            0      0.00%     78.28% # Number of instructions issued per FU type, per thread (Count)
system.cpu.statIssuedInstType_0::SimdSqrt            0      0.00%     78.28% # Number of instructions issued per FU type, per thread (Count)
system.cpu.statIssuedInstType_0::SimdFloatAdd       191060      0.01%     78.29% # Number of instructions issued per FU type, per thread (Count)
system.cpu.statIssuedInstType_0::SimdFloatAlu            0      0.00%     78.29% # Number of instructions issued per FU type, per thread (Count)
system.cpu.statIssuedInstType_0::SimdFloatCmp            1      0.00%     78.29% # Number of instructions issued per FU type, per thread (Count)
system.cpu.statIssuedInstType_0::SimdFloatCvt       430168      0.01%     78.30% # Number of instructions issued per FU type, per thread (Count)
system.cpu.statIssuedInstType_0::SimdFloatDiv         9360      0.00%     78.30% # Number of instructions issued per FU type, per thread (Count)
system.cpu.statIssuedInstType_0::SimdFloatMisc            0      0.00%     78.30% # Number of instructions issued per FU type, per thread (Count)
system.cpu.statIssuedInstType_0::SimdFloatMult        91721      0.00%     78.30% # Number of instructions issued per FU type, per thread (Count)
system.cpu.statIssuedInstType_0::SimdFloatMultAcc            0      0.00%     78.30% # Number of instructions issued per FU type, per thread (Count)
system.cpu.statIssuedInstType_0::SimdFloatSqrt            0      0.00%     78.30% # Number of instructions issued per FU type, per thread (Count)
system.cpu.statIssuedInstType_0::SimdReduceAdd            0      0.00%     78.30% # Number of instructions issued per FU type, per thread (Count)
system.cpu.statIssuedInstType_0::SimdReduceAlu            0      0.00%     78.30% # Number of instructions issued per FU type, per thread (Count)
system.cpu.statIssuedInstType_0::SimdReduceCmp            0      0.00%     78.30% # Number of instructions issued per FU type, per thread (Count)
system.cpu.statIssuedInstType_0::SimdFloatReduceAdd            0      0.00%     78.30% # Number of instructions issued per FU type, per thread (Count)
system.cpu.statIssuedInstType_0::SimdFloatReduceCmp            0      0.00%     78.30% # Number of instructions issued per FU type, per thread (Count)
system.cpu.statIssuedInstType_0::SimdAes            0      0.00%     78.30% # Number of instructions issued per FU type, per thread (Count)
system.cpu.statIssuedInstType_0::SimdAesMix            0      0.00%     78.30% # Number of instructions issued per FU type, per thread (Count)
system.cpu.statIssuedInstType_0::SimdSha1Hash            0      0.00%     78.30% # Number of instructions issued per FU type, per thread (Count)
system.cpu.statIssuedInstType_0::SimdSha1Hash2            0      0.00%     78.30% # Number of instructions issued per FU type, per thread (Count)
system.cpu.statIssuedInstType_0::SimdSha256Hash            0      0.00%     78.30% # Number of instructions issued per FU type, per thread (Count)
system.cpu.statIssuedInstType_0::SimdSha256Hash2            0      0.00%     78.30% # Number of instructions issued per FU type, per thread (Count)
system.cpu.statIssuedInstType_0::SimdShaSigma2            0      0.00%     78.30% # Number of instructions issued per FU type, per thread (Count)
system.cpu.statIssuedInstType_0::SimdShaSigma3            0      0.00%     78.30% # Number of instructions issued per FU type, per thread (Count)
system.cpu.statIssuedInstType_0::SimdPredAlu            0      0.00%     78.30% # Number of instructions issued per FU type, per thread (Count)
system.cpu.statIssuedInstType_0::MemRead    662286285     19.43%     97.74% # Number of instructions issued per FU type, per thread (Count)
system.cpu.statIssuedInstType_0::MemWrite     76589685      2.25%     99.98% # Number of instructions issued per FU type, per thread (Count)
system.cpu.statIssuedInstType_0::FloatMemRead       282706      0.01%     99.99% # Number of instructions issued per FU type, per thread (Count)
system.cpu.statIssuedInstType_0::FloatMemWrite       271200      0.01%    100.00% # Number of instructions issued per FU type, per thread (Count)
system.cpu.statIssuedInstType_0::IprAccess            0      0.00%    100.00% # Number of instructions issued per FU type, per thread (Count)
system.cpu.statIssuedInstType_0::InstPrefetch            0      0.00%    100.00% # Number of instructions issued per FU type, per thread (Count)
system.cpu.statIssuedInstType_0::total     3408025516                       # Number of instructions issued per FU type, per thread (Count)
system.cpu.issueRate                         1.991356                       # Inst issue rate ((Count/Cycle))
system.cpu.fuBusy                            21384986                       # FU busy when requested (Count)
system.cpu.fuBusyRate                        0.006275                       # FU busy rate (busy events/executed inst) ((Count/Count))
system.cpu.intInstQueueReads               8549409347                       # Number of integer instruction queue reads (Count)
system.cpu.intInstQueueWrites              6033583926                       # Number of integer instruction queue writes (Count)
system.cpu.intInstQueueWakeupAccesses      3194789188                       # Number of integer instruction queue wakeup accesses (Count)
system.cpu.fpInstQueueReads                   3480230                       # Number of floating instruction queue reads (Count)
system.cpu.fpInstQueueWrites                  2780846                       # Number of floating instruction queue writes (Count)
system.cpu.fpInstQueueWakeupAccesses          1709503                       # Number of floating instruction queue wakeup accesses (Count)
system.cpu.vecInstQueueReads                        0                       # Number of vector instruction queue reads (Count)
system.cpu.vecInstQueueWrites                       0                       # Number of vector instruction queue writes (Count)
system.cpu.vecInstQueueWakeupAccesses               0                       # Number of vector instruction queue wakeup accesses (Count)
system.cpu.intAluAccesses                  3426678866                       # Number of integer alu accesses (Count)
system.cpu.fpAluAccesses                      1741223                       # Number of floating point alu accesses (Count)
system.cpu.vecAluAccesses                           0                       # Number of vector alu accesses (Count)
system.cpu.numInsts                        3292721959                       # Number of executed instructions (Count)
system.cpu.numLoadInsts                     626059746                       # Number of load instructions executed (Count)
system.cpu.numSquashedInsts                 115303553                       # Number of squashed instructions skipped in execute (Count)
system.cpu.numSwp                                   0                       # Number of swp insts executed (Count)
system.cpu.numNop                                   0                       # Number of nop insts executed (Count)
system.cpu.numRefs                          698993640                       # Number of memory reference insts executed (Count)
system.cpu.numBranches                      271581518                       # Number of branches executed (Count)
system.cpu.numStoreInsts                     72933894                       # Number of stores executed (Count)
system.cpu.numRate                           1.923982                       # Inst execution rate ((Count/Cycle))
system.cpu.timesIdled                            1260                       # Number of times that the entire CPU went into an idle state and unscheduled itself (Count)
system.cpu.idleCycles                          113431                       # Total number of cycles that the CPU has spent unscheduled due to idling (Cycle)
system.cpu.committedInsts                  1000000002                       # Number of Instructions Simulated (Count)
system.cpu.committedOps                    1740845239                       # Number of Ops (including micro ops) Simulated (Count)
system.cpu.cpi                               1.711410                       # CPI: Cycles Per Instruction ((Cycle/Count))
system.cpu.totalCpi                          1.711410                       # CPI: Total CPI of All Threads ((Cycle/Count))
system.cpu.ipc                               0.584314                       # IPC: Instructions Per Cycle ((Count/Cycle))
system.cpu.totalIpc                          0.584314                       # IPC: Total IPC of All Threads ((Count/Cycle))
system.cpu.intRegfileReads                 5164333333                       # Number of integer regfile reads (Count)
system.cpu.intRegfileWrites                2569535354                       # Number of integer regfile writes (Count)
system.cpu.fpRegfileReads                     4114022                       # Number of floating regfile reads (Count)
system.cpu.fpRegfileWrites                    1250107                       # Number of floating regfile writes (Count)
system.cpu.ccRegfileReads                  1612809228                       # number of cc regfile reads (Count)
system.cpu.ccRegfileWrites                  981832105                       # number of cc regfile writes (Count)
system.cpu.miscRegfileReads                1357013208                       # number of misc regfile reads (Count)
system.cpu.miscRegfileWrites                      225                       # number of misc regfile writes (Count)
system.cpu.MemDepUnit__0.insertedLoads      722714636                       # Number of loads inserted to the mem dependence unit. (Count)
system.cpu.MemDepUnit__0.insertedStores      91696536                       # Number of stores inserted to the mem dependence unit. (Count)
system.cpu.MemDepUnit__0.conflictingLoads     19729230                       # Number of conflicting loads. (Count)
system.cpu.MemDepUnit__0.conflictingStores      8727029                       # Number of conflicting stores. (Count)
system.cpu.MemDepUnit__1.insertedLoads              0                       # Number of loads inserted to the mem dependence unit. (Count)
system.cpu.MemDepUnit__1.insertedStores             0                       # Number of stores inserted to the mem dependence unit. (Count)
system.cpu.MemDepUnit__1.conflictingLoads            0                       # Number of conflicting loads. (Count)
system.cpu.MemDepUnit__1.conflictingStores            0                       # Number of conflicting stores. (Count)
system.cpu.MemDepUnit__2.insertedLoads              0                       # Number of loads inserted to the mem dependence unit. (Count)
system.cpu.MemDepUnit__2.insertedStores             0                       # Number of stores inserted to the mem dependence unit. (Count)
system.cpu.MemDepUnit__2.conflictingLoads            0                       # Number of conflicting loads. (Count)
system.cpu.MemDepUnit__2.conflictingStores            0                       # Number of conflicting stores. (Count)
system.cpu.MemDepUnit__3.insertedLoads              0                       # Number of loads inserted to the mem dependence unit. (Count)
system.cpu.MemDepUnit__3.insertedStores             0                       # Number of stores inserted to the mem dependence unit. (Count)
system.cpu.MemDepUnit__3.conflictingLoads            0                       # Number of conflicting loads. (Count)
system.cpu.MemDepUnit__3.conflictingStores            0                       # Number of conflicting stores. (Count)
system.cpu.branchPred.lookups               496372585                       # Number of BP lookups (Count)
system.cpu.branchPred.condPredicted         481184665                       # Number of conditional branches predicted (Count)
system.cpu.branchPred.condIncorrect          57206756                       # Number of conditional branches incorrect (Count)
system.cpu.branchPred.BTBLookups            296007036                       # Number of BTB lookups (Count)
system.cpu.branchPred.BTBHits               295891456                       # Number of BTB hits (Count)
system.cpu.branchPred.BTBHitRatio            0.999610                       # BTB Hit Ratio (Ratio)
system.cpu.branchPred.RASUsed                 7374360                       # Number of times the RAS was used to get a target. (Count)
system.cpu.branchPred.RASIncorrect                 55                       # Number of incorrect RAS predictions. (Count)
system.cpu.branchPred.indirectLookups          126632                       # Number of indirect predictor lookups. (Count)
system.cpu.branchPred.indirectHits             115528                       # Number of indirect target hits. (Count)
system.cpu.branchPred.indirectMisses            11104                       # Number of indirect misses. (Count)
system.cpu.branchPred.indirectMispredicted          724                       # Number of mispredicted indirect branches. (Count)
system.cpu.commit.commitSquashedInsts      2148037080                       # The number of squashed insts skipped by commit (Count)
system.cpu.commit.commitNonSpecStalls            1125                       # The number of times commit has been forced to stall to communicate backwards (Count)
system.cpu.commit.branchMispredicts          57203320                       # The number of times a branch was mispredicted (Count)
system.cpu.commit.numCommittedDist::samples   1385396194                       # Number of insts commited each cycle (Count)
system.cpu.commit.numCommittedDist::mean     1.256569                       # Number of insts commited each cycle (Count)
system.cpu.commit.numCommittedDist::stdev     2.364416                       # Number of insts commited each cycle (Count)
system.cpu.commit.numCommittedDist::underflows            0      0.00%      0.00% # Number of insts commited each cycle (Count)
system.cpu.commit.numCommittedDist::0       882155087     63.68%     63.68% # Number of insts commited each cycle (Count)
system.cpu.commit.numCommittedDist::1       206527941     14.91%     78.58% # Number of insts commited each cycle (Count)
system.cpu.commit.numCommittedDist::2        50610080      3.65%     82.24% # Number of insts commited each cycle (Count)
system.cpu.commit.numCommittedDist::3        65017621      4.69%     86.93% # Number of insts commited each cycle (Count)
system.cpu.commit.numCommittedDist::4        33224804      2.40%     89.33% # Number of insts commited each cycle (Count)
system.cpu.commit.numCommittedDist::5        14807512      1.07%     90.40% # Number of insts commited each cycle (Count)
system.cpu.commit.numCommittedDist::6        10475718      0.76%     91.15% # Number of insts commited each cycle (Count)
system.cpu.commit.numCommittedDist::7        12366257      0.89%     92.04% # Number of insts commited each cycle (Count)
system.cpu.commit.numCommittedDist::8       110211174      7.96%    100.00% # Number of insts commited each cycle (Count)
system.cpu.commit.numCommittedDist::overflows            0      0.00%    100.00% # Number of insts commited each cycle (Count)
system.cpu.commit.numCommittedDist::min_value            0                       # Number of insts commited each cycle (Count)
system.cpu.commit.numCommittedDist::max_value            8                       # Number of insts commited each cycle (Count)
system.cpu.commit.numCommittedDist::total   1385396194                       # Number of insts commited each cycle (Count)
system.cpu.commit.instsCommitted           1000000002                       # Number of instructions committed (Count)
system.cpu.commit.opsCommitted             1740845239                       # Number of ops (including micro ops) committed (Count)
system.cpu.commit.memRefs                   358915091                       # Number of memory references committed (Count)
system.cpu.commit.loads                     314214355                       # Number of loads committed (Count)
system.cpu.commit.amos                              0                       # Number of atomic instructions committed (Count)
system.cpu.commit.membars                         600                       # Number of memory barriers committed (Count)
system.cpu.commit.branches                  186622068                       # Number of branches committed (Count)
system.cpu.commit.vectorInstructions                0                       # Number of committed Vector instructions. (Count)
system.cpu.commit.floating                    1535542                       # Number of committed floating point instructions. (Count)
system.cpu.commit.integer                  1739103771                       # Number of committed integer instructions. (Count)
system.cpu.commit.functionCalls                834825                       # Number of function calls committed. (Count)
system.cpu.commit.committedInstType_0::No_OpClass       616161      0.04%      0.04% # Class of committed instruction (Count)
system.cpu.commit.committedInstType_0::IntAlu   1376139374     79.05%     79.09% # Class of committed instruction (Count)
system.cpu.commit.committedInstType_0::IntMult      4067189      0.23%     79.32% # Class of committed instruction (Count)
system.cpu.commit.committedInstType_0::IntDiv        30744      0.00%     79.32% # Class of committed instruction (Count)
system.cpu.commit.committedInstType_0::FloatAdd        15618      0.00%     79.32% # Class of committed instruction (Count)
system.cpu.commit.committedInstType_0::FloatCmp            0      0.00%     79.32% # Class of committed instruction (Count)
system.cpu.commit.committedInstType_0::FloatCvt          400      0.00%     79.32% # Class of committed instruction (Count)
system.cpu.commit.committedInstType_0::FloatMult            0      0.00%     79.32% # Class of committed instruction (Count)
system.cpu.commit.committedInstType_0::FloatMultAcc            0      0.00%     79.32% # Class of committed instruction (Count)
system.cpu.commit.committedInstType_0::FloatDiv            0      0.00%     79.32% # Class of committed instruction (Count)
system.cpu.commit.committedInstType_0::FloatMisc            0      0.00%     79.32% # Class of committed instruction (Count)
system.cpu.commit.committedInstType_0::FloatSqrt            0      0.00%     79.32% # Class of committed instruction (Count)
system.cpu.commit.committedInstType_0::SimdAdd            0      0.00%     79.32% # Class of committed instruction (Count)
system.cpu.commit.committedInstType_0::SimdAddAcc            0      0.00%     79.32% # Class of committed instruction (Count)
system.cpu.commit.committedInstType_0::SimdAlu           38      0.00%     79.32% # Class of committed instruction (Count)
system.cpu.commit.committedInstType_0::SimdCmp            0      0.00%     79.32% # Class of committed instruction (Count)
system.cpu.commit.committedInstType_0::SimdCvt           44      0.00%     79.32% # Class of committed instruction (Count)
system.cpu.commit.committedInstType_0::SimdMisc       375574      0.02%     79.34% # Class of committed instruction (Count)
system.cpu.commit.committedInstType_0::SimdMult            0      0.00%     79.34% # Class of committed instruction (Count)
system.cpu.commit.committedInstType_0::SimdMultAcc            0      0.00%     79.34% # Class of committed instruction (Count)
system.cpu.commit.committedInstType_0::SimdShift            0      0.00%     79.34% # Class of committed instruction (Count)
system.cpu.commit.committedInstType_0::SimdShiftAcc            0      0.00%     79.34% # Class of committed instruction (Count)
system.cpu.commit.committedInstType_0::SimdDiv            0      0.00%     79.34% # Class of committed instruction (Count)
system.cpu.commit.committedInstType_0::SimdSqrt            0      0.00%     79.34% # Class of committed instruction (Count)
system.cpu.commit.committedInstType_0::SimdFloatAdd       179557      0.01%     79.35% # Class of committed instruction (Count)
system.cpu.commit.committedInstType_0::SimdFloatAlu            0      0.00%     79.35% # Class of committed instruction (Count)
system.cpu.commit.committedInstType_0::SimdFloatCmp            1      0.00%     79.35% # Class of committed instruction (Count)
system.cpu.commit.committedInstType_0::SimdFloatCvt       406009      0.02%     79.38% # Class of committed instruction (Count)
system.cpu.commit.committedInstType_0::SimdFloatDiv         9143      0.00%     79.38% # Class of committed instruction (Count)
system.cpu.commit.committedInstType_0::SimdFloatMisc            0      0.00%     79.38% # Class of committed instruction (Count)
system.cpu.commit.committedInstType_0::SimdFloatMult        90296      0.01%     79.38% # Class of committed instruction (Count)
system.cpu.commit.committedInstType_0::SimdFloatMultAcc            0      0.00%     79.38% # Class of committed instruction (Count)
system.cpu.commit.committedInstType_0::SimdFloatSqrt            0      0.00%     79.38% # Class of committed instruction (Count)
system.cpu.commit.committedInstType_0::SimdReduceAdd            0      0.00%     79.38% # Class of committed instruction (Count)
system.cpu.commit.committedInstType_0::SimdReduceAlu            0      0.00%     79.38% # Class of committed instruction (Count)
system.cpu.commit.committedInstType_0::SimdReduceCmp            0      0.00%     79.38% # Class of committed instruction (Count)
system.cpu.commit.committedInstType_0::SimdFloatReduceAdd            0      0.00%     79.38% # Class of committed instruction (Count)
system.cpu.commit.committedInstType_0::SimdFloatReduceCmp            0      0.00%     79.38% # Class of committed instruction (Count)
system.cpu.commit.committedInstType_0::SimdAes            0      0.00%     79.38% # Class of committed instruction (Count)
system.cpu.commit.committedInstType_0::SimdAesMix            0      0.00%     79.38% # Class of committed instruction (Count)
system.cpu.commit.committedInstType_0::SimdSha1Hash            0      0.00%     79.38% # Class of committed instruction (Count)
system.cpu.commit.committedInstType_0::SimdSha1Hash2            0      0.00%     79.38% # Class of committed instruction (Count)
system.cpu.commit.committedInstType_0::SimdSha256Hash            0      0.00%     79.38% # Class of committed instruction (Count)
system.cpu.commit.committedInstType_0::SimdSha256Hash2            0      0.00%     79.38% # Class of committed instruction (Count)
system.cpu.commit.committedInstType_0::SimdShaSigma2            0      0.00%     79.38% # Class of committed instruction (Count)
system.cpu.commit.committedInstType_0::SimdShaSigma3            0      0.00%     79.38% # Class of committed instruction (Count)
system.cpu.commit.committedInstType_0::SimdPredAlu            0      0.00%     79.38% # Class of committed instruction (Count)
system.cpu.commit.committedInstType_0::MemRead    314027721     18.04%     97.42% # Class of committed instruction (Count)
system.cpu.commit.committedInstType_0::MemWrite     44437726      2.55%     99.97% # Class of committed instruction (Count)
system.cpu.commit.committedInstType_0::FloatMemRead       186634      0.01%     99.98% # Class of committed instruction (Count)
system.cpu.commit.committedInstType_0::FloatMemWrite       263010      0.02%    100.00% # Class of committed instruction (Count)
system.cpu.commit.committedInstType_0::IprAccess            0      0.00%    100.00% # Class of committed instruction (Count)
system.cpu.commit.committedInstType_0::InstPrefetch            0      0.00%    100.00% # Class of committed instruction (Count)
system.cpu.commit.committedInstType_0::total   1740845239                       # Class of committed instruction (Count)
system.cpu.commit.commitEligibleSamples     110211174                       # number cycles where commit BW limit reached (Cycle)
system.cpu.dcache.demandHits::cpu.data      631608861                       # number of demand (read+write) hits (Count)
system.cpu.dcache.demandHits::total         631608861                       # number of demand (read+write) hits (Count)
system.cpu.dcache.overallHits::cpu.data     631609003                       # number of overall hits (Count)
system.cpu.dcache.overallHits::total        631609003                       # number of overall hits (Count)
system.cpu.dcache.demandMisses::cpu.data     26488324                       # number of demand (read+write) misses (Count)
system.cpu.dcache.demandMisses::total        26488324                       # number of demand (read+write) misses (Count)
system.cpu.dcache.overallMisses::cpu.data     26494219                       # number of overall misses (Count)
system.cpu.dcache.overallMisses::total       26494219                       # number of overall misses (Count)
system.cpu.dcache.demandMissLatency::cpu.data 1259658267461                       # number of demand (read+write) miss ticks (Tick)
system.cpu.dcache.demandMissLatency::total 1259658267461                       # number of demand (read+write) miss ticks (Tick)
system.cpu.dcache.overallMissLatency::cpu.data 1259658267461                       # number of overall miss ticks (Tick)
system.cpu.dcache.overallMissLatency::total 1259658267461                       # number of overall miss ticks (Tick)
system.cpu.dcache.demandAccesses::cpu.data    658097185                       # number of demand (read+write) accesses (Count)
system.cpu.dcache.demandAccesses::total     658097185                       # number of demand (read+write) accesses (Count)
system.cpu.dcache.overallAccesses::cpu.data    658103222                       # number of overall (read+write) accesses (Count)
system.cpu.dcache.overallAccesses::total    658103222                       # number of overall (read+write) accesses (Count)
system.cpu.dcache.demandMissRate::cpu.data     0.040250                       # miss rate for demand accesses (Ratio)
system.cpu.dcache.demandMissRate::total      0.040250                       # miss rate for demand accesses (Ratio)
system.cpu.dcache.overallMissRate::cpu.data     0.040258                       # miss rate for overall accesses (Ratio)
system.cpu.dcache.overallMissRate::total     0.040258                       # miss rate for overall accesses (Ratio)
system.cpu.dcache.demandAvgMissLatency::cpu.data 47555.227256                       # average overall miss latency in ticks ((Tick/Count))
system.cpu.dcache.demandAvgMissLatency::total 47555.227256                       # average overall miss latency in ticks ((Tick/Count))
system.cpu.dcache.overallAvgMissLatency::cpu.data 47544.646153                       # average overall miss latency ((Tick/Count))
system.cpu.dcache.overallAvgMissLatency::total 47544.646153                       # average overall miss latency ((Tick/Count))
system.cpu.dcache.blockedCycles::no_mshrs     45030097                       # number of cycles access was blocked (Cycle)
system.cpu.dcache.blockedCycles::no_targets         1535                       # number of cycles access was blocked (Cycle)
system.cpu.dcache.blockedCauses::no_mshrs      1092173                       # number of times access was blocked (Count)
system.cpu.dcache.blockedCauses::no_targets           20                       # number of times access was blocked (Count)
system.cpu.dcache.avgBlocked::no_mshrs      41.229821                       # average number of cycles each access was blocked ((Cycle/Count))
system.cpu.dcache.avgBlocked::no_targets    76.750000                       # average number of cycles each access was blocked ((Cycle/Count))
system.cpu.dcache.writebacks::writebacks      4081321                       # number of writebacks (Count)
system.cpu.dcache.writebacks::total           4081321                       # number of writebacks (Count)
system.cpu.dcache.demandMshrHits::cpu.data     17436824                       # number of demand (read+write) MSHR hits (Count)
system.cpu.dcache.demandMshrHits::total      17436824                       # number of demand (read+write) MSHR hits (Count)
system.cpu.dcache.overallMshrHits::cpu.data     17436824                       # number of overall MSHR hits (Count)
system.cpu.dcache.overallMshrHits::total     17436824                       # number of overall MSHR hits (Count)
system.cpu.dcache.demandMshrMisses::cpu.data      9051500                       # number of demand (read+write) MSHR misses (Count)
system.cpu.dcache.demandMshrMisses::total      9051500                       # number of demand (read+write) MSHR misses (Count)
system.cpu.dcache.overallMshrMisses::cpu.data      9057393                       # number of overall MSHR misses (Count)
system.cpu.dcache.overallMshrMisses::total      9057393                       # number of overall MSHR misses (Count)
system.cpu.dcache.demandMshrMissLatency::cpu.data 491415180999                       # number of demand (read+write) MSHR miss ticks (Tick)
system.cpu.dcache.demandMshrMissLatency::total 491415180999                       # number of demand (read+write) MSHR miss ticks (Tick)
system.cpu.dcache.overallMshrMissLatency::cpu.data 491837293999                       # number of overall MSHR miss ticks (Tick)
system.cpu.dcache.overallMshrMissLatency::total 491837293999                       # number of overall MSHR miss ticks (Tick)
system.cpu.dcache.demandMshrMissRate::cpu.data     0.013754                       # mshr miss ratio for demand accesses (Ratio)
system.cpu.dcache.demandMshrMissRate::total     0.013754                       # mshr miss ratio for demand accesses (Ratio)
system.cpu.dcache.overallMshrMissRate::cpu.data     0.013763                       # mshr miss ratio for overall accesses (Ratio)
system.cpu.dcache.overallMshrMissRate::total     0.013763                       # mshr miss ratio for overall accesses (Ratio)
system.cpu.dcache.demandAvgMshrMissLatency::cpu.data 54291.021488                       # average overall mshr miss latency ((Tick/Count))
system.cpu.dcache.demandAvgMshrMissLatency::total 54291.021488                       # average overall mshr miss latency ((Tick/Count))
system.cpu.dcache.overallAvgMshrMissLatency::cpu.data 54302.302439                       # average overall mshr miss latency ((Tick/Count))
system.cpu.dcache.overallAvgMshrMissLatency::total 54302.302439                       # average overall mshr miss latency ((Tick/Count))
system.cpu.dcache.replacements                9056893                       # number of replacements (Count)
system.cpu.dcache.LockedRMWReadReq.hits::cpu.data          284                       # number of LockedRMWReadReq hits (Count)
system.cpu.dcache.LockedRMWReadReq.hits::total          284                       # number of LockedRMWReadReq hits (Count)
system.cpu.dcache.LockedRMWReadReq.misses::cpu.data           16                       # number of LockedRMWReadReq misses (Count)
system.cpu.dcache.LockedRMWReadReq.misses::total           16                       # number of LockedRMWReadReq misses (Count)
system.cpu.dcache.LockedRMWReadReq.missLatency::cpu.data       860500                       # number of LockedRMWReadReq miss ticks (Tick)
system.cpu.dcache.LockedRMWReadReq.missLatency::total       860500                       # number of LockedRMWReadReq miss ticks (Tick)
system.cpu.dcache.LockedRMWReadReq.accesses::cpu.data          300                       # number of LockedRMWReadReq accesses(hits+misses) (Count)
system.cpu.dcache.LockedRMWReadReq.accesses::total          300                       # number of LockedRMWReadReq accesses(hits+misses) (Count)
system.cpu.dcache.LockedRMWReadReq.missRate::cpu.data     0.053333                       # miss rate for LockedRMWReadReq accesses (Ratio)
system.cpu.dcache.LockedRMWReadReq.missRate::total     0.053333                       # miss rate for LockedRMWReadReq accesses (Ratio)
system.cpu.dcache.LockedRMWReadReq.avgMissLatency::cpu.data 53781.250000                       # average LockedRMWReadReq miss latency ((Tick/Count))
system.cpu.dcache.LockedRMWReadReq.avgMissLatency::total 53781.250000                       # average LockedRMWReadReq miss latency ((Tick/Count))
system.cpu.dcache.LockedRMWReadReq.mshrMisses::cpu.data           16                       # number of LockedRMWReadReq MSHR misses (Count)
system.cpu.dcache.LockedRMWReadReq.mshrMisses::total           16                       # number of LockedRMWReadReq MSHR misses (Count)
system.cpu.dcache.LockedRMWReadReq.mshrMissLatency::cpu.data      2591000                       # number of LockedRMWReadReq MSHR miss ticks (Tick)
system.cpu.dcache.LockedRMWReadReq.mshrMissLatency::total      2591000                       # number of LockedRMWReadReq MSHR miss ticks (Tick)
system.cpu.dcache.LockedRMWReadReq.mshrMissRate::cpu.data     0.053333                       # mshr miss rate for LockedRMWReadReq accesses (Ratio)
system.cpu.dcache.LockedRMWReadReq.mshrMissRate::total     0.053333                       # mshr miss rate for LockedRMWReadReq accesses (Ratio)
system.cpu.dcache.LockedRMWReadReq.avgMshrMissLatency::cpu.data 161937.500000                       # average LockedRMWReadReq mshr miss latency ((Tick/Count))
system.cpu.dcache.LockedRMWReadReq.avgMshrMissLatency::total 161937.500000                       # average LockedRMWReadReq mshr miss latency ((Tick/Count))
system.cpu.dcache.LockedRMWWriteReq.hits::cpu.data          300                       # number of LockedRMWWriteReq hits (Count)
system.cpu.dcache.LockedRMWWriteReq.hits::total          300                       # number of LockedRMWWriteReq hits (Count)
system.cpu.dcache.LockedRMWWriteReq.accesses::cpu.data          300                       # number of LockedRMWWriteReq accesses(hits+misses) (Count)
system.cpu.dcache.LockedRMWWriteReq.accesses::total          300                       # number of LockedRMWWriteReq accesses(hits+misses) (Count)
system.cpu.dcache.ReadReq.hits::cpu.data    587087633                       # number of ReadReq hits (Count)
system.cpu.dcache.ReadReq.hits::total       587087633                       # number of ReadReq hits (Count)
system.cpu.dcache.ReadReq.misses::cpu.data     26309107                       # number of ReadReq misses (Count)
system.cpu.dcache.ReadReq.misses::total      26309107                       # number of ReadReq misses (Count)
system.cpu.dcache.ReadReq.missLatency::cpu.data 1248783419500                       # number of ReadReq miss ticks (Tick)
system.cpu.dcache.ReadReq.missLatency::total 1248783419500                       # number of ReadReq miss ticks (Tick)
system.cpu.dcache.ReadReq.accesses::cpu.data    613396740                       # number of ReadReq accesses(hits+misses) (Count)
system.cpu.dcache.ReadReq.accesses::total    613396740                       # number of ReadReq accesses(hits+misses) (Count)
system.cpu.dcache.ReadReq.missRate::cpu.data     0.042891                       # miss rate for ReadReq accesses (Ratio)
system.cpu.dcache.ReadReq.missRate::total     0.042891                       # miss rate for ReadReq accesses (Ratio)
system.cpu.dcache.ReadReq.avgMissLatency::cpu.data 47465.823127                       # average ReadReq miss latency ((Tick/Count))
system.cpu.dcache.ReadReq.avgMissLatency::total 47465.823127                       # average ReadReq miss latency ((Tick/Count))
system.cpu.dcache.ReadReq.mshrHits::cpu.data     17435298                       # number of ReadReq MSHR hits (Count)
system.cpu.dcache.ReadReq.mshrHits::total     17435298                       # number of ReadReq MSHR hits (Count)
system.cpu.dcache.ReadReq.mshrMisses::cpu.data      8873809                       # number of ReadReq MSHR misses (Count)
system.cpu.dcache.ReadReq.mshrMisses::total      8873809                       # number of ReadReq MSHR misses (Count)
system.cpu.dcache.ReadReq.mshrMissLatency::cpu.data 480801321500                       # number of ReadReq MSHR miss ticks (Tick)
system.cpu.dcache.ReadReq.mshrMissLatency::total 480801321500                       # number of ReadReq MSHR miss ticks (Tick)
system.cpu.dcache.ReadReq.mshrMissRate::cpu.data     0.014467                       # mshr miss rate for ReadReq accesses (Ratio)
system.cpu.dcache.ReadReq.mshrMissRate::total     0.014467                       # mshr miss rate for ReadReq accesses (Ratio)
system.cpu.dcache.ReadReq.avgMshrMissLatency::cpu.data 54182.067870                       # average ReadReq mshr miss latency ((Tick/Count))
system.cpu.dcache.ReadReq.avgMshrMissLatency::total 54182.067870                       # average ReadReq mshr miss latency ((Tick/Count))
system.cpu.dcache.SoftPFReq.hits::cpu.data          142                       # number of SoftPFReq hits (Count)
system.cpu.dcache.SoftPFReq.hits::total           142                       # number of SoftPFReq hits (Count)
system.cpu.dcache.SoftPFReq.misses::cpu.data         5895                       # number of SoftPFReq misses (Count)
system.cpu.dcache.SoftPFReq.misses::total         5895                       # number of SoftPFReq misses (Count)
system.cpu.dcache.SoftPFReq.accesses::cpu.data         6037                       # number of SoftPFReq accesses(hits+misses) (Count)
system.cpu.dcache.SoftPFReq.accesses::total         6037                       # number of SoftPFReq accesses(hits+misses) (Count)
system.cpu.dcache.SoftPFReq.missRate::cpu.data     0.976478                       # miss rate for SoftPFReq accesses (Ratio)
system.cpu.dcache.SoftPFReq.missRate::total     0.976478                       # miss rate for SoftPFReq accesses (Ratio)
system.cpu.dcache.SoftPFReq.mshrMisses::cpu.data         5893                       # number of SoftPFReq MSHR misses (Count)
system.cpu.dcache.SoftPFReq.mshrMisses::total         5893                       # number of SoftPFReq MSHR misses (Count)
system.cpu.dcache.SoftPFReq.mshrMissLatency::cpu.data    422113000                       # number of SoftPFReq MSHR miss ticks (Tick)
system.cpu.dcache.SoftPFReq.mshrMissLatency::total    422113000                       # number of SoftPFReq MSHR miss ticks (Tick)
system.cpu.dcache.SoftPFReq.mshrMissRate::cpu.data     0.976147                       # mshr miss rate for SoftPFReq accesses (Ratio)
system.cpu.dcache.SoftPFReq.mshrMissRate::total     0.976147                       # mshr miss rate for SoftPFReq accesses (Ratio)
system.cpu.dcache.SoftPFReq.avgMshrMissLatency::cpu.data 71629.560496                       # average SoftPFReq mshr miss latency ((Tick/Count))
system.cpu.dcache.SoftPFReq.avgMshrMissLatency::total 71629.560496                       # average SoftPFReq mshr miss latency ((Tick/Count))
system.cpu.dcache.WriteReq.hits::cpu.data     44521228                       # number of WriteReq hits (Count)
system.cpu.dcache.WriteReq.hits::total       44521228                       # number of WriteReq hits (Count)
system.cpu.dcache.WriteReq.misses::cpu.data       179217                       # number of WriteReq misses (Count)
system.cpu.dcache.WriteReq.misses::total       179217                       # number of WriteReq misses (Count)
system.cpu.dcache.WriteReq.missLatency::cpu.data  10874847961                       # number of WriteReq miss ticks (Tick)
system.cpu.dcache.WriteReq.missLatency::total  10874847961                       # number of WriteReq miss ticks (Tick)
system.cpu.dcache.WriteReq.accesses::cpu.data     44700445                       # number of WriteReq accesses(hits+misses) (Count)
system.cpu.dcache.WriteReq.accesses::total     44700445                       # number of WriteReq accesses(hits+misses) (Count)
system.cpu.dcache.WriteReq.missRate::cpu.data     0.004009                       # miss rate for WriteReq accesses (Ratio)
system.cpu.dcache.WriteReq.missRate::total     0.004009                       # miss rate for WriteReq accesses (Ratio)
system.cpu.dcache.WriteReq.avgMissLatency::cpu.data 60679.779044                       # average WriteReq miss latency ((Tick/Count))
system.cpu.dcache.WriteReq.avgMissLatency::total 60679.779044                       # average WriteReq miss latency ((Tick/Count))
system.cpu.dcache.WriteReq.mshrHits::cpu.data         1526                       # number of WriteReq MSHR hits (Count)
system.cpu.dcache.WriteReq.mshrHits::total         1526                       # number of WriteReq MSHR hits (Count)
system.cpu.dcache.WriteReq.mshrMisses::cpu.data       177691                       # number of WriteReq MSHR misses (Count)
system.cpu.dcache.WriteReq.mshrMisses::total       177691                       # number of WriteReq MSHR misses (Count)
system.cpu.dcache.WriteReq.mshrMissLatency::cpu.data  10613859499                       # number of WriteReq MSHR miss ticks (Tick)
system.cpu.dcache.WriteReq.mshrMissLatency::total  10613859499                       # number of WriteReq MSHR miss ticks (Tick)
system.cpu.dcache.WriteReq.mshrMissRate::cpu.data     0.003975                       # mshr miss rate for WriteReq accesses (Ratio)
system.cpu.dcache.WriteReq.mshrMissRate::total     0.003975                       # mshr miss rate for WriteReq accesses (Ratio)
system.cpu.dcache.WriteReq.avgMshrMissLatency::cpu.data 59732.116421                       # average WriteReq mshr miss latency ((Tick/Count))
system.cpu.dcache.WriteReq.avgMshrMissLatency::total 59732.116421                       # average WriteReq mshr miss latency ((Tick/Count))
system.cpu.dcache.power_state.pwrStateResidencyTicks::UNDEFINED 855704858500                       # Cumulative time (in ticks) in various power states (Tick)
system.cpu.dcache.tags.tagsInUse           511.983612                       # Average ticks per tags in use ((Tick/Count))
system.cpu.dcache.tags.totalRefs            640666996                       # Total number of references to valid blocks. (Count)
system.cpu.dcache.tags.sampledRefs            9057405                       # Sample count of references to valid blocks. (Count)
system.cpu.dcache.tags.avgRefs              70.734056                       # Average number of references to valid blocks. ((Count/Count))
system.cpu.dcache.tags.warmupTick              148000                       # The tick when the warmup percentage was hit. (Tick)
system.cpu.dcache.tags.occupancies::cpu.data   511.983612                       # Average occupied blocks per tick, per requestor ((Count/Tick))
system.cpu.dcache.tags.avgOccs::cpu.data     0.999968                       # Average percentage of cache occupancy ((Ratio/Tick))
system.cpu.dcache.tags.avgOccs::total        0.999968                       # Average percentage of cache occupancy ((Ratio/Tick))
system.cpu.dcache.tags.occupanciesTaskId::1024          512                       # Occupied blocks per task id (Count)
system.cpu.dcache.tags.ageTaskId_1024::0           28                       # Occupied blocks per task id, per block age (Count)
system.cpu.dcache.tags.ageTaskId_1024::1          224                       # Occupied blocks per task id, per block age (Count)
system.cpu.dcache.tags.ageTaskId_1024::2          256                       # Occupied blocks per task id, per block age (Count)
system.cpu.dcache.tags.ageTaskId_1024::3            1                       # Occupied blocks per task id, per block age (Count)
system.cpu.dcache.tags.ageTaskId_1024::4            3                       # Occupied blocks per task id, per block age (Count)
system.cpu.dcache.tags.ratioOccsTaskId::1024            1                       # Ratio of occupied blocks and all blocks, per task id (Ratio)
system.cpu.dcache.tags.tagAccesses         5273887981                       # Number of tag accesses (Count)
system.cpu.dcache.tags.dataAccesses        5273887981                       # Number of data accesses (Count)
system.cpu.dcache.tags.power_state.pwrStateResidencyTicks::UNDEFINED 855704858500                       # Cumulative time (in ticks) in various power states (Tick)
system.cpu.decode.idleCycles                441994472                       # Number of cycles decode is idle (Cycle)
system.cpu.decode.blockedCycles             513347714                       # Number of cycles decode is blocked (Cycle)
system.cpu.decode.runCycles                 649568079                       # Number of cycles decode is running (Cycle)
system.cpu.decode.unblockCycles              49164682                       # Number of cycles decode is unblocking (Cycle)
system.cpu.decode.squashCycles               57221340                       # Number of cycles decode is squashing (Cycle)
system.cpu.decode.branchResolved            276031395                       # Number of times decode resolved a branch (Count)
system.cpu.decode.branchMispred                  7383                       # Number of times decode detected a branch misprediction (Count)
system.cpu.decode.decodedInsts             4437792313                       # Number of instructions handled by decode (Count)
system.cpu.decode.squashedInsts                 45564                       # Number of squashed instructions handled by decode (Count)
system.cpu.dtb_walker_cache.blockedCycles::no_mshrs            0                       # number of cycles access was blocked (Cycle)
system.cpu.dtb_walker_cache.blockedCycles::no_targets            0                       # number of cycles access was blocked (Cycle)
system.cpu.dtb_walker_cache.blockedCauses::no_mshrs            0                       # number of times access was blocked (Count)
system.cpu.dtb_walker_cache.blockedCauses::no_targets            0                       # number of times access was blocked (Count)
system.cpu.dtb_walker_cache.avgBlocked::no_mshrs          nan                       # average number of cycles each access was blocked ((Cycle/Count))
system.cpu.dtb_walker_cache.avgBlocked::no_targets          nan                       # average number of cycles each access was blocked ((Cycle/Count))
system.cpu.dtb_walker_cache.replacements            0                       # number of replacements (Count)
system.cpu.dtb_walker_cache.power_state.pwrStateResidencyTicks::UNDEFINED 855704858500                       # Cumulative time (in ticks) in various power states (Tick)
system.cpu.dtb_walker_cache.tags.tagsInUse            0                       # Average ticks per tags in use ((Tick/Count))
system.cpu.dtb_walker_cache.tags.totalRefs            0                       # Total number of references to valid blocks. (Count)
system.cpu.dtb_walker_cache.tags.sampledRefs            0                       # Sample count of references to valid blocks. (Count)
system.cpu.dtb_walker_cache.tags.avgRefs          nan                       # Average number of references to valid blocks. ((Count/Count))
system.cpu.dtb_walker_cache.tags.warmupTick            0                       # The tick when the warmup percentage was hit. (Tick)
system.cpu.dtb_walker_cache.tags.tagAccesses            0                       # Number of tag accesses (Count)
system.cpu.dtb_walker_cache.tags.dataAccesses            0                       # Number of data accesses (Count)
system.cpu.dtb_walker_cache.tags.power_state.pwrStateResidencyTicks::UNDEFINED 855704858500                       # Cumulative time (in ticks) in various power states (Tick)
system.cpu.fetch.icacheStallCycles          561872904                       # Number of cycles fetch is stalled on an Icache miss (Cycle)
system.cpu.fetch.insts                     2707508362                       # Number of instructions fetch has processed (Count)
system.cpu.fetch.branches                   496372585                       # Number of branches that fetch encountered (Count)
system.cpu.fetch.predictedBranches          303381344                       # Number of branches that fetch has predicted taken (Count)
system.cpu.fetch.cycles                    1092159483                       # Number of cycles fetch has run and was not squashing or blocked (Cycle)
system.cpu.fetch.squashCycles               114457214                       # Number of cycles fetch has spent squashing (Cycle)
system.cpu.fetch.tlbCycles                        334                       # Number of cycles fetch has spent waiting for tlb (Cycle)
system.cpu.fetch.miscStallCycles                 3861                       # Number of cycles fetch has spent waiting on interrupts, or bad addresses, or out of MSHRs (Cycle)
system.cpu.fetch.pendingTrapStallCycles         31098                       # Number of stall cycles due to pending traps (Cycle)
system.cpu.fetch.cacheLines                 528397641                       # Number of cache lines fetched (Count)
system.cpu.fetch.icacheSquashes              20144834                       # Number of outstanding Icache misses that were squashed (Count)
system.cpu.fetch.tlbSquashes                        2                       # Number of outstanding ITLB misses that were squashed (Count)
system.cpu.fetch.nisnDist::samples         1711296287                       # Number of instructions fetched each cycle (Total) (Count)
system.cpu.fetch.nisnDist::mean              2.782184                       # Number of instructions fetched each cycle (Total) (Count)
system.cpu.fetch.nisnDist::stdev             3.450659                       # Number of instructions fetched each cycle (Total) (Count)
system.cpu.fetch.nisnDist::underflows               0      0.00%      0.00% # Number of instructions fetched each cycle (Total) (Count)
system.cpu.fetch.nisnDist::0                901960447     52.71%     52.71% # Number of instructions fetched each cycle (Total) (Count)
system.cpu.fetch.nisnDist::1                113482799      6.63%     59.34% # Number of instructions fetched each cycle (Total) (Count)
system.cpu.fetch.nisnDist::2                 23262238      1.36%     60.70% # Number of instructions fetched each cycle (Total) (Count)
system.cpu.fetch.nisnDist::3                 47538801      2.78%     63.47% # Number of instructions fetched each cycle (Total) (Count)
system.cpu.fetch.nisnDist::4                 71789227      4.20%     67.67% # Number of instructions fetched each cycle (Total) (Count)
system.cpu.fetch.nisnDist::5                 27118674      1.58%     69.25% # Number of instructions fetched each cycle (Total) (Count)
system.cpu.fetch.nisnDist::6                 44723856      2.61%     71.87% # Number of instructions fetched each cycle (Total) (Count)
system.cpu.fetch.nisnDist::7                 83938293      4.90%     76.77% # Number of instructions fetched each cycle (Total) (Count)
system.cpu.fetch.nisnDist::8                397481952     23.23%    100.00% # Number of instructions fetched each cycle (Total) (Count)
system.cpu.fetch.nisnDist::overflows                0      0.00%    100.00% # Number of instructions fetched each cycle (Total) (Count)
system.cpu.fetch.nisnDist::min_value                0                       # Number of instructions fetched each cycle (Total) (Count)
system.cpu.fetch.nisnDist::max_value                8                       # Number of instructions fetched each cycle (Total) (Count)
system.cpu.fetch.nisnDist::total           1711296287                       # Number of instructions fetched each cycle (Total) (Count)
system.cpu.fetch.branchRate                  0.290037                       # Number of branch fetches per cycle (Ratio)
system.cpu.fetch.rate                        1.582034                       # Number of inst fetches per cycle ((Count/Cycle))
system.cpu.icache.demandHits::cpu.inst      528395267                       # number of demand (read+write) hits (Count)
system.cpu.icache.demandHits::total         528395267                       # number of demand (read+write) hits (Count)
system.cpu.icache.overallHits::cpu.inst     528395267                       # number of overall hits (Count)
system.cpu.icache.overallHits::total        528395267                       # number of overall hits (Count)
system.cpu.icache.demandMisses::cpu.inst         2374                       # number of demand (read+write) misses (Count)
system.cpu.icache.demandMisses::total            2374                       # number of demand (read+write) misses (Count)
system.cpu.icache.overallMisses::cpu.inst         2374                       # number of overall misses (Count)
system.cpu.icache.overallMisses::total           2374                       # number of overall misses (Count)
system.cpu.icache.demandMissLatency::cpu.inst    149349000                       # number of demand (read+write) miss ticks (Tick)
system.cpu.icache.demandMissLatency::total    149349000                       # number of demand (read+write) miss ticks (Tick)
system.cpu.icache.overallMissLatency::cpu.inst    149349000                       # number of overall miss ticks (Tick)
system.cpu.icache.overallMissLatency::total    149349000                       # number of overall miss ticks (Tick)
system.cpu.icache.demandAccesses::cpu.inst    528397641                       # number of demand (read+write) accesses (Count)
system.cpu.icache.demandAccesses::total     528397641                       # number of demand (read+write) accesses (Count)
system.cpu.icache.overallAccesses::cpu.inst    528397641                       # number of overall (read+write) accesses (Count)
system.cpu.icache.overallAccesses::total    528397641                       # number of overall (read+write) accesses (Count)
system.cpu.icache.demandMissRate::cpu.inst     0.000004                       # miss rate for demand accesses (Ratio)
system.cpu.icache.demandMissRate::total      0.000004                       # miss rate for demand accesses (Ratio)
system.cpu.icache.overallMissRate::cpu.inst     0.000004                       # miss rate for overall accesses (Ratio)
system.cpu.icache.overallMissRate::total     0.000004                       # miss rate for overall accesses (Ratio)
system.cpu.icache.demandAvgMissLatency::cpu.inst 62910.278012                       # average overall miss latency in ticks ((Tick/Count))
system.cpu.icache.demandAvgMissLatency::total 62910.278012                       # average overall miss latency in ticks ((Tick/Count))
system.cpu.icache.overallAvgMissLatency::cpu.inst 62910.278012                       # average overall miss latency ((Tick/Count))
system.cpu.icache.overallAvgMissLatency::total 62910.278012                       # average overall miss latency ((Tick/Count))
system.cpu.icache.blockedCycles::no_mshrs           46                       # number of cycles access was blocked (Cycle)
system.cpu.icache.blockedCycles::no_targets            0                       # number of cycles access was blocked (Cycle)
system.cpu.icache.blockedCauses::no_mshrs            1                       # number of times access was blocked (Count)
system.cpu.icache.blockedCauses::no_targets            0                       # number of times access was blocked (Count)
system.cpu.icache.avgBlocked::no_mshrs             46                       # average number of cycles each access was blocked ((Cycle/Count))
system.cpu.icache.avgBlocked::no_targets          nan                       # average number of cycles each access was blocked ((Cycle/Count))
system.cpu.icache.writebacks::writebacks         1282                       # number of writebacks (Count)
system.cpu.icache.writebacks::total              1282                       # number of writebacks (Count)
system.cpu.icache.demandMshrHits::cpu.inst          576                       # number of demand (read+write) MSHR hits (Count)
system.cpu.icache.demandMshrHits::total           576                       # number of demand (read+write) MSHR hits (Count)
system.cpu.icache.overallMshrHits::cpu.inst          576                       # number of overall MSHR hits (Count)
system.cpu.icache.overallMshrHits::total          576                       # number of overall MSHR hits (Count)
system.cpu.icache.demandMshrMisses::cpu.inst         1798                       # number of demand (read+write) MSHR misses (Count)
system.cpu.icache.demandMshrMisses::total         1798                       # number of demand (read+write) MSHR misses (Count)
system.cpu.icache.overallMshrMisses::cpu.inst         1798                       # number of overall MSHR misses (Count)
system.cpu.icache.overallMshrMisses::total         1798                       # number of overall MSHR misses (Count)
system.cpu.icache.demandMshrMissLatency::cpu.inst    118570000                       # number of demand (read+write) MSHR miss ticks (Tick)
system.cpu.icache.demandMshrMissLatency::total    118570000                       # number of demand (read+write) MSHR miss ticks (Tick)
system.cpu.icache.overallMshrMissLatency::cpu.inst    118570000                       # number of overall MSHR miss ticks (Tick)
system.cpu.icache.overallMshrMissLatency::total    118570000                       # number of overall MSHR miss ticks (Tick)
system.cpu.icache.demandMshrMissRate::cpu.inst     0.000003                       # mshr miss ratio for demand accesses (Ratio)
system.cpu.icache.demandMshrMissRate::total     0.000003                       # mshr miss ratio for demand accesses (Ratio)
system.cpu.icache.overallMshrMissRate::cpu.inst     0.000003                       # mshr miss ratio for overall accesses (Ratio)
system.cpu.icache.overallMshrMissRate::total     0.000003                       # mshr miss ratio for overall accesses (Ratio)
system.cpu.icache.demandAvgMshrMissLatency::cpu.inst 65945.494994                       # average overall mshr miss latency ((Tick/Count))
system.cpu.icache.demandAvgMshrMissLatency::total 65945.494994                       # average overall mshr miss latency ((Tick/Count))
system.cpu.icache.overallAvgMshrMissLatency::cpu.inst 65945.494994                       # average overall mshr miss latency ((Tick/Count))
system.cpu.icache.overallAvgMshrMissLatency::total 65945.494994                       # average overall mshr miss latency ((Tick/Count))
system.cpu.icache.replacements                   1282                       # number of replacements (Count)
system.cpu.icache.ReadReq.hits::cpu.inst    528395267                       # number of ReadReq hits (Count)
system.cpu.icache.ReadReq.hits::total       528395267                       # number of ReadReq hits (Count)
system.cpu.icache.ReadReq.misses::cpu.inst         2374                       # number of ReadReq misses (Count)
system.cpu.icache.ReadReq.misses::total          2374                       # number of ReadReq misses (Count)
system.cpu.icache.ReadReq.missLatency::cpu.inst    149349000                       # number of ReadReq miss ticks (Tick)
system.cpu.icache.ReadReq.missLatency::total    149349000                       # number of ReadReq miss ticks (Tick)
system.cpu.icache.ReadReq.accesses::cpu.inst    528397641                       # number of ReadReq accesses(hits+misses) (Count)
system.cpu.icache.ReadReq.accesses::total    528397641                       # number of ReadReq accesses(hits+misses) (Count)
system.cpu.icache.ReadReq.missRate::cpu.inst     0.000004                       # miss rate for ReadReq accesses (Ratio)
system.cpu.icache.ReadReq.missRate::total     0.000004                       # miss rate for ReadReq accesses (Ratio)
system.cpu.icache.ReadReq.avgMissLatency::cpu.inst 62910.278012                       # average ReadReq miss latency ((Tick/Count))
system.cpu.icache.ReadReq.avgMissLatency::total 62910.278012                       # average ReadReq miss latency ((Tick/Count))
system.cpu.icache.ReadReq.mshrHits::cpu.inst          576                       # number of ReadReq MSHR hits (Count)
system.cpu.icache.ReadReq.mshrHits::total          576                       # number of ReadReq MSHR hits (Count)
system.cpu.icache.ReadReq.mshrMisses::cpu.inst         1798                       # number of ReadReq MSHR misses (Count)
system.cpu.icache.ReadReq.mshrMisses::total         1798                       # number of ReadReq MSHR misses (Count)
system.cpu.icache.ReadReq.mshrMissLatency::cpu.inst    118570000                       # number of ReadReq MSHR miss ticks (Tick)
system.cpu.icache.ReadReq.mshrMissLatency::total    118570000                       # number of ReadReq MSHR miss ticks (Tick)
system.cpu.icache.ReadReq.mshrMissRate::cpu.inst     0.000003                       # mshr miss rate for ReadReq accesses (Ratio)
system.cpu.icache.ReadReq.mshrMissRate::total     0.000003                       # mshr miss rate for ReadReq accesses (Ratio)
system.cpu.icache.ReadReq.avgMshrMissLatency::cpu.inst 65945.494994                       # average ReadReq mshr miss latency ((Tick/Count))
system.cpu.icache.ReadReq.avgMshrMissLatency::total 65945.494994                       # average ReadReq mshr miss latency ((Tick/Count))
system.cpu.icache.power_state.pwrStateResidencyTicks::UNDEFINED 855704858500                       # Cumulative time (in ticks) in various power states (Tick)
system.cpu.icache.tags.tagsInUse           511.866459                       # Average ticks per tags in use ((Tick/Count))
system.cpu.icache.tags.totalRefs            528397065                       # Total number of references to valid blocks. (Count)
system.cpu.icache.tags.sampledRefs               1798                       # Sample count of references to valid blocks. (Count)
system.cpu.icache.tags.avgRefs           293880.458843                       # Average number of references to valid blocks. ((Count/Count))
system.cpu.icache.tags.warmupTick               77000                       # The tick when the warmup percentage was hit. (Tick)
system.cpu.icache.tags.occupancies::cpu.inst   511.866459                       # Average occupied blocks per tick, per requestor ((Count/Tick))
system.cpu.icache.tags.avgOccs::cpu.inst     0.999739                       # Average percentage of cache occupancy ((Ratio/Tick))
system.cpu.icache.tags.avgOccs::total        0.999739                       # Average percentage of cache occupancy ((Ratio/Tick))
system.cpu.icache.tags.occupanciesTaskId::1024          512                       # Occupied blocks per task id (Count)
system.cpu.icache.tags.ageTaskId_1024::4          512                       # Occupied blocks per task id, per block age (Count)
system.cpu.icache.tags.ratioOccsTaskId::1024            1                       # Ratio of occupied blocks and all blocks, per task id (Ratio)
system.cpu.icache.tags.tagAccesses         4227182926                       # Number of tag accesses (Count)
system.cpu.icache.tags.dataAccesses        4227182926                       # Number of data accesses (Count)
system.cpu.icache.tags.power_state.pwrStateResidencyTicks::UNDEFINED 855704858500                       # Cumulative time (in ticks) in various power states (Tick)
system.cpu.iew.reusedInsts                  441111186                       # Number of instructions reused (Cycle)
system.cpu.iew.reusedFloatInsts                329505                       # Number of float instructions reused (Cycle)
system.cpu.iew.reusedIntInsts               440781681                       # Number of int instructions reused (Cycle)
system.cpu.iew.reusedVecInsts                       0                       # Number of vector instructions reused (Cycle)
system.cpu.iew.idleCycles                           0                       # Number of cycles IEW is idle (Cycle)
system.cpu.iew.squashCycles                  57221340                       # Number of cycles IEW is squashing (Cycle)
system.cpu.iew.blockCycles                  287486172                       # Number of cycles IEW is blocking (Cycle)
system.cpu.iew.unblockCycles                  9248802                       # Number of cycles IEW is unblocking (Cycle)
system.cpu.iew.dispatchedInsts             3888595890                       # Number of instructions dispatched to IQ (Count)
system.cpu.iew.dispSquashedInsts               302271                       # Number of squashed instructions skipped by dispatch (Count)
system.cpu.iew.dispLoadInsts                722714636                       # Number of dispatched load instructions (Count)
system.cpu.iew.dispStoreInsts                91696536                       # Number of dispatched store instructions (Count)
system.cpu.iew.dispNonSpecInsts                  2378                       # Number of dispatched non-speculative instructions (Count)
system.cpu.iew.iqFullEvents                    585665                       # Number of times the IQ has become full, causing a stall (Count)
system.cpu.iew.lsqFullEvents                  8524685                       # Number of times the LSQ has become full, causing a stall (Count)
system.cpu.iew.memOrderViolationEvents          18607                       # Number of memory order violations (Count)
system.cpu.iew.predictedTakenIncorrect       45514438                       # Number of branches that were predicted taken incorrectly (Count)
system.cpu.iew.predictedNotTakenIncorrect     27723009                       # Number of branches that were predicted not taken incorrectly (Count)
system.cpu.iew.branchMispredicts             73237447                       # Number of branch mispredicts detected at execute (Count)
[...]
system.mem_ctrls.dram.bwTotal::writebacks    305250743                       # Total bandwidth to/from this memory ((Byte/Second))
system.mem_ctrls.dram.bwTotal::cpu.inst        134028                       # Total bandwidth to/from this memory ((Byte/Second))
system.mem_ctrls.dram.bwTotal::cpu.data     677422728                       # Total bandwidth to/from this memory ((Byte/Second))
system.mem_ctrls.dram.bwTotal::total        982807499                       # Total bandwidth to/from this memory ((Byte/Second))
system.mem_ctrls.dram.readBursts              7012519                       # Number of DRAM read bursts (Count)
system.mem_ctrls.dram.writeBursts             3808652                       # Number of DRAM write bursts (Count)
system.mem_ctrls.dram.perBankRdBursts::0       519840                       # Per bank write bursts (Count)
system.mem_ctrls.dram.perBankRdBursts::1       533114                       # Per bank write bursts (Count)
system.mem_ctrls.dram.perBankRdBursts::2       579787                       # Per bank write bursts (Count)
system.mem_ctrls.dram.perBankRdBursts::3       224309                       # Per bank write bursts (Count)
system.mem_ctrls.dram.perBankRdBursts::4       283218                       # Per bank write bursts (Count)
system.mem_ctrls.dram.perBankRdBursts::5       340753                       # Per bank write bursts (Count)
system.mem_ctrls.dram.perBankRdBursts::6       414701                       # Per bank write bursts (Count)
system.mem_ctrls.dram.perBankRdBursts::7       420429                       # Per bank write bursts (Count)
system.mem_ctrls.dram.perBankRdBursts::8       426817                       # Per bank write bursts (Count)
system.mem_ctrls.dram.perBankRdBursts::9       413024                       # Per bank write bursts (Count)
system.mem_ctrls.dram.perBankRdBursts::10       434038                       # Per bank write bursts (Count)
system.mem_ctrls.dram.perBankRdBursts::11       432382                       # Per bank write bursts (Count)
system.mem_ctrls.dram.perBankRdBursts::12       432756                       # Per bank write bursts (Count)
system.mem_ctrls.dram.perBankRdBursts::13       479817                       # Per bank write bursts (Count)
system.mem_ctrls.dram.perBankRdBursts::14       523089                       # Per bank write bursts (Count)
system.mem_ctrls.dram.perBankRdBursts::15       554445                       # Per bank write bursts (Count)
system.mem_ctrls.dram.perBankWrBursts::0       256192                       # Per bank write bursts (Count)
system.mem_ctrls.dram.perBankWrBursts::1       237672                       # Per bank write bursts (Count)
system.mem_ctrls.dram.perBankWrBursts::2       269767                       # Per bank write bursts (Count)
system.mem_ctrls.dram.perBankWrBursts::3       151095                       # Per bank write bursts (Count)
system.mem_ctrls.dram.perBankWrBursts::4       145629                       # Per bank write bursts (Count)
system.mem_ctrls.dram.perBankWrBursts::5       158092                       # Per bank write bursts (Count)
system.mem_ctrls.dram.perBankWrBursts::6       207526                       # Per bank write bursts (Count)
system.mem_ctrls.dram.perBankWrBursts::7       215169                       # Per bank write bursts (Count)
system.mem_ctrls.dram.perBankWrBursts::8       247710                       # Per bank write bursts (Count)
system.mem_ctrls.dram.perBankWrBursts::9       279970                       # Per bank write bursts (Count)
system.mem_ctrls.dram.perBankWrBursts::10       315303                       # Per bank write bursts (Count)
system.mem_ctrls.dram.perBankWrBursts::11       305739                       # Per bank write bursts (Count)
system.mem_ctrls.dram.perBankWrBursts::12       265786                       # Per bank write bursts (Count)
system.mem_ctrls.dram.perBankWrBursts::13       245226                       # Per bank write bursts (Count)
system.mem_ctrls.dram.perBankWrBursts::14       244113                       # Per bank write bursts (Count)
system.mem_ctrls.dram.perBankWrBursts::15       263663                       # Per bank write bursts (Count)
system.mem_ctrls.dram.totQLat             92441026500                       # Total ticks spent queuing (Tick)
system.mem_ctrls.dram.totBusLat           35062595000                       # Total ticks spent in databus transfers (Tick)
system.mem_ctrls.dram.totMemAccLat       223925757750                       # Total ticks spent from burst creation until serviced by the DRAM (Tick)
system.mem_ctrls.dram.avgQLat                13182.29                       # Average queueing delay per DRAM burst ((Tick/Count))
system.mem_ctrls.dram.avgBusLat               5000.00                       # Average bus latency per DRAM burst ((Tick/Count))
system.mem_ctrls.dram.avgMemAccLat           31932.29                       # Average memory access latency per DRAM burst ((Tick/Count))
system.mem_ctrls.dram.readRowHits             5380807                       # Number of row buffer hits during reads (Count)
system.mem_ctrls.dram.writeRowHits            3259530                       # Number of row buffer hits during writes (Count)
system.mem_ctrls.dram.readRowHitRate            76.73                       # Row buffer hit rate for reads (Ratio)
system.mem_ctrls.dram.writeRowHitRate           85.58                       # Row buffer hit rate for writes (Ratio)
system.mem_ctrls.dram.bytesPerActivate::samples      2180832                       # Bytes accessed per row activation (Byte)
system.mem_ctrls.dram.bytesPerActivate::mean   317.564232                       # Bytes accessed per row activation (Byte)
system.mem_ctrls.dram.bytesPerActivate::gmean   215.130138                       # Bytes accessed per row activation (Byte)
system.mem_ctrls.dram.bytesPerActivate::stdev   274.869802                       # Bytes accessed per row activation (Byte)
system.mem_ctrls.dram.bytesPerActivate::0-127       546756     25.07%     25.07% # Bytes accessed per row activation (Byte)
system.mem_ctrls.dram.bytesPerActivate::128-255       561573     25.75%     50.82% # Bytes accessed per row activation (Byte)
system.mem_ctrls.dram.bytesPerActivate::256-383       321889     14.76%     65.58% # Bytes accessed per row activation (Byte)
system.mem_ctrls.dram.bytesPerActivate::384-511       222729     10.21%     75.79% # Bytes accessed per row activation (Byte)
system.mem_ctrls.dram.bytesPerActivate::512-639       188764      8.66%     84.45% # Bytes accessed per row activation (Byte)
system.mem_ctrls.dram.bytesPerActivate::640-767       106712      4.89%     89.34% # Bytes accessed per row activation (Byte)
system.mem_ctrls.dram.bytesPerActivate::768-895        75849      3.48%     92.82% # Bytes accessed per row activation (Byte)
system.mem_ctrls.dram.bytesPerActivate::896-1023        53345      2.45%     95.27% # Bytes accessed per row activation (Byte)
system.mem_ctrls.dram.bytesPerActivate::1024-1151       103215      4.73%    100.00% # Bytes accessed per row activation (Byte)
system.mem_ctrls.dram.bytesPerActivate::total      2180832                       # Bytes accessed per row activation (Byte)
system.mem_ctrls.dram.bytesRead             448801216                       # Total bytes read (Byte)
system.mem_ctrls.dram.bytesWritten          243753728                       # Total bytes written (Byte)
system.mem_ctrls.dram.avgRdBW              524.481323                       # Average DRAM read bandwidth in MiBytes/s ((Byte/Second))
system.mem_ctrls.dram.avgWrBW              284.857244                       # Average DRAM write bandwidth in MiBytes/s ((Byte/Second))
system.mem_ctrls.dram.peakBW                 12800.00                       # Theoretical peak bandwidth in MiByte/s ((Byte/Second))
system.mem_ctrls.dram.busUtil                    6.32                       # Data bus utilization in percentage (Ratio)
system.mem_ctrls.dram.busUtilRead                4.10                       # Data bus utilization in percentage for reads (Ratio)
system.mem_ctrls.dram.busUtilWrite               2.23                       # Data bus utilization in percentage for writes (Ratio)
system.mem_ctrls.dram.pageHitRate               79.85                       # Row buffer hit rate, read and write combined (Ratio)
system.mem_ctrls.dram.power_state.pwrStateResidencyTicks::UNDEFINED 855704858500                       # Cumulative time (in ticks) in various power states (Tick)
system.mem_ctrls.dram.rank0.actEnergy      8503175940                       # Energy for activate commands per rank (pJ) (Joule)
system.mem_ctrls.dram.rank0.preEnergy      4519541400                       # Energy for precharge commands per rank (pJ) (Joule)
system.mem_ctrls.dram.rank0.readEnergy    23677318140                       # Energy for read commands per rank (pJ) (Joule)
system.mem_ctrls.dram.rank0.writeEnergy    8566761240                       # Energy for write commands per rank (pJ) (Joule)
system.mem_ctrls.dram.rank0.refreshEnergy 67548321360.000008                       # Energy for refresh commands per rank (pJ) (Joule)
system.mem_ctrls.dram.rank0.actBackEnergy 361099493310                       # Energy for active background per rank (pJ) (Joule)
system.mem_ctrls.dram.rank0.preBackEnergy  24506881920                       # Energy for precharge background per rank (pJ) (Joule)
system.mem_ctrls.dram.rank0.actPowerDownEnergy            0                       # Energy for active power-down per rank (pJ) (Joule)
system.mem_ctrls.dram.rank0.prePowerDownEnergy            0                       # Energy for precharge power-down per rank (pJ) (Joule)
system.mem_ctrls.dram.rank0.selfRefreshEnergy            0                       # Energy for self refresh per rank (pJ) (Joule)
system.mem_ctrls.dram.rank0.totalEnergy  498421493310                       # Total energy per rank (pJ) (Joule)
system.mem_ctrls.dram.rank0.averagePower   582.468930                       # Core power per rank (mW) (Watt)
system.mem_ctrls.dram.rank0.totalIdleTime            0                       # Total Idle time Per DRAM Rank (Tick)
system.mem_ctrls.dram.rank0.pwrStateTime::IDLE  60561952750                       # Time in different power states (Tick)
system.mem_ctrls.dram.rank0.pwrStateTime::REF  28573740000                       # Time in different power states (Tick)
system.mem_ctrls.dram.rank0.pwrStateTime::SREF            0                       # Time in different power states (Tick)
system.mem_ctrls.dram.rank0.pwrStateTime::PRE_PDN            0                       # Time in different power states (Tick)
system.mem_ctrls.dram.rank0.pwrStateTime::ACT 766569165750                       # Time in different power states (Tick)
system.mem_ctrls.dram.rank0.pwrStateTime::ACT_PDN            0                       # Time in different power states (Tick)
system.mem_ctrls.dram.rank1.actEnergy      7067978820                       # Energy for activate commands per rank (pJ) (Joule)
system.mem_ctrls.dram.rank1.preEnergy      3756716040                       # Energy for precharge commands per rank (pJ) (Joule)
system.mem_ctrls.dram.rank1.readEnergy    26392067520                       # Energy for read commands per rank (pJ) (Joule)
system.mem_ctrls.dram.rank1.writeEnergy   11314402200                       # Energy for write commands per rank (pJ) (Joule)
system.mem_ctrls.dram.rank1.refreshEnergy 67548321360.000008                       # Energy for refresh commands per rank (pJ) (Joule)
system.mem_ctrls.dram.rank1.actBackEnergy 364521921510                       # Energy for active background per rank (pJ) (Joule)
system.mem_ctrls.dram.rank1.preBackEnergy  21624837120                       # Energy for precharge background per rank (pJ) (Joule)
system.mem_ctrls.dram.rank1.actPowerDownEnergy            0                       # Energy for active power-down per rank (pJ) (Joule)
system.mem_ctrls.dram.rank1.prePowerDownEnergy            0                       # Energy for precharge power-down per rank (pJ) (Joule)
system.mem_ctrls.dram.rank1.selfRefreshEnergy            0                       # Energy for self refresh per rank (pJ) (Joule)
system.mem_ctrls.dram.rank1.totalEnergy  502226244570                       # Total energy per rank (pJ) (Joule)
system.mem_ctrls.dram.rank1.averagePower   586.915266                       # Core power per rank (mW) (Watt)
system.mem_ctrls.dram.rank1.totalIdleTime            0                       # Total Idle time Per DRAM Rank (Tick)
system.mem_ctrls.dram.rank1.pwrStateTime::IDLE  53217215750                       # Time in different power states (Tick)
system.mem_ctrls.dram.rank1.pwrStateTime::REF  28573740000                       # Time in different power states (Tick)
system.mem_ctrls.dram.rank1.pwrStateTime::SREF            0                       # Time in different power states (Tick)
system.mem_ctrls.dram.rank1.pwrStateTime::PRE_PDN            0                       # Time in different power states (Tick)
system.mem_ctrls.dram.rank1.pwrStateTime::ACT 773913902750                       # Time in different power states (Tick)
system.mem_ctrls.dram.rank1.pwrStateTime::ACT_PDN            0                       # Time in different power states (Tick)
system.mem_ctrls.power_state.pwrStateResidencyTicks::UNDEFINED 855704858500                       # Cumulative time (in ticks) in various power states (Tick)
system.membus.transDist::ReadResp             8881483                       # Transaction distribution (Count)
system.membus.transDist::WritebackDirty       4081321                       # Transaction distribution (Count)
system.membus.transDist::WritebackClean          1282                       # Transaction distribution (Count)
system.membus.transDist::CleanEvict           4975572                       # Transaction distribution (Count)
system.membus.transDist::UpgradeReq                 4                       # Transaction distribution (Count)
system.membus.transDist::ReadExReq             177720                       # Transaction distribution (Count)
system.membus.transDist::ReadExResp            177720                       # Transaction distribution (Count)
system.membus.transDist::ReadCleanReq            1798                       # Transaction distribution (Count)
system.membus.transDist::ReadSharedReq        8879685                       # Transaction distribution (Count)
system.membus.pktCount_system.cpu.icache.mem_side_port::system.mem_ctrls.port         4872                       # Packet count per connected requestor and responder (Count)
system.membus.pktCount_system.cpu.icache.mem_side_port::total         4872                       # Packet count per connected requestor and responder (Count)
system.membus.pktCount_system.cpu.dcache.mem_side_port::system.mem_ctrls.port     27171707                       # Packet count per connected requestor and responder (Count)
system.membus.pktCount_system.cpu.dcache.mem_side_port::total     27171707                       # Packet count per connected requestor and responder (Count)
system.membus.pktCount::total                27176579                       # Packet count per connected requestor and responder (Count)
system.membus.pktSize_system.cpu.icache.mem_side_port::system.mem_ctrls.port       196736                       # Cumulative packet size per connected requestor and responder (Byte)
system.membus.pktSize_system.cpu.icache.mem_side_port::total       196736                       # Cumulative packet size per connected requestor and responder (Byte)
system.membus.pktSize_system.cpu.dcache.mem_side_port::system.mem_ctrls.port    840878464                       # Cumulative packet size per connected requestor and responder (Byte)
system.membus.pktSize_system.cpu.dcache.mem_side_port::total    840878464                       # Cumulative packet size per connected requestor and responder (Byte)
system.membus.pktSize::total                841075200                       # Cumulative packet size per connected requestor and responder (Byte)
system.membus.snoops                                6                       # Total snoops (Count)
system.membus.snoopTraffic                        384                       # Total snoop traffic (Byte)
system.membus.snoopFanout::samples            9059207                       # Request fanout histogram (Count)
system.membus.snoopFanout::mean              0.000165                       # Request fanout histogram (Count)
system.membus.snoopFanout::stdev             0.012849                       # Request fanout histogram (Count)
system.membus.snoopFanout::underflows               0      0.00%      0.00% # Request fanout histogram (Count)
system.membus.snoopFanout::0                  9057711     99.98%     99.98% # Request fanout histogram (Count)
system.membus.snoopFanout::1                     1496      0.02%    100.00% # Request fanout histogram (Count)
system.membus.snoopFanout::2                        0      0.00%    100.00% # Request fanout histogram (Count)
system.membus.snoopFanout::3                        0      0.00%    100.00% # Request fanout histogram (Count)
system.membus.snoopFanout::4                        0      0.00%    100.00% # Request fanout histogram (Count)
system.membus.snoopFanout::overflows                0      0.00%    100.00% # Request fanout histogram (Count)
system.membus.snoopFanout::min_value                0                       # Request fanout histogram (Count)
system.membus.snoopFanout::max_value                1                       # Request fanout histogram (Count)
system.membus.snoopFanout::total              9059207                       # Request fanout histogram (Count)
system.membus.power_state.pwrStateResidencyTicks::UNDEFINED 855704858500                       # Cumulative time (in ticks) in various power states (Tick)
system.membus.reqLayer2.occupancy         36258407500                       # Layer occupancy (ticks) (Tick)
system.membus.reqLayer2.utilization               0.0                       # Layer utilization (Ratio)
system.membus.respLayer1.occupancy            9595500                       # Layer occupancy (ticks) (Tick)
system.membus.respLayer1.utilization              0.0                       # Layer utilization (Ratio)
system.membus.respLayer2.occupancy        47369829500                       # Layer occupancy (ticks) (Tick)
system.membus.respLayer2.utilization              0.1                       # Layer utilization (Ratio)
system.membus.snoop_filter.totRequests       18117382                       # Total number of requests made to the snoop filter. (Count)
system.membus.snoop_filter.hitSingleRequests      9058175                       # Number of requests hitting in the snoop filter with a single holder of the requested data. (Count)
system.membus.snoop_filter.hitMultiRequests         1496                       # Number of requests hitting in the snoop filter with multiple (>1) holders of the requested data. (Count)
system.membus.snoop_filter.totSnoops                0                       # Total number of snoops made to the snoop filter. (Count)
system.membus.snoop_filter.hitSingleSnoops            0                       # Number of snoops hitting in the snoop filter with a single holder of the requested data. (Count)
system.membus.snoop_filter.hitMultiSnoops            0                       # Number of snoops hitting in the snoop filter with multiple (>1) holders of the requested data. (Count)
system.voltage_domain.voltage                       1                       # Voltage in Volts (Volt)
system.workload.inst.arm                            0                       # number of arm instructions executed (Count)
system.workload.inst.quiesce                        0                       # number of quiesce instructions executed (Count)

---------- End Simulation Statistics   ----------
