
---------- Begin Simulation Statistics ----------
simSeconds                                   0.063080                       # Number of seconds simulated (Second)
simTicks                                  63079732000                       # Number of ticks simulated (Tick)
finalTick                                 63079732000                       # Number of ticks from beginning of simulation (restored from checkpoints and never reset) (Tick)
simFreq                                  1000000000000                       # The number of ticks per simulated second ((Tick/Second))
hostSeconds                                    416.48                       # Real time elapsed on the host (Second)
hostTickRate                                151458594                       # The number of ticks simulated per host second (ticks/s) ((Tick/Second))
hostMemory                                    8724248                       # Number of bytes of host memory used (Byte)
simInsts                                     10000000                       # Number of instructions simulated (Count)
simOps                                       14513442                       # Number of ops (including micro ops) simulated (Count)
hostInstRate                                    24010                       # Simulator instruction rate (inst/s) ((Count/Second))
hostOpRate                                      34847                       # Simulator op (including micro ops) rate (op/s) ((Count/Second))
system.clk_domain.clock                          1000                       # Clock period in ticks (Tick)
system.cpu.numCycles                        126159465                       # Number of cpu cycles simulated (Cycle)
system.cpu.numWorkItemsStarted                      0                       # Number of work items this cpu started (Count)
system.cpu.numWorkItemsCompleted                    0                       # Number of work items this cpu completed (Count)
system.cpu.instsAdded                        15608116                       # Number of instructions added to the IQ (excludes non-spec) (Count)
system.cpu.nonSpecInstsAdded                       76                       # Number of non-speculative instructions added to the IQ (Count)
system.cpu.instsIssued                       15526782                       # Number of instructions issued (Count)
system.cpu.squashedInstsIssued                   1041                       # Number of squashed instructions issued (Count)
system.cpu.squashedInstsExamined              1094749                       # Number of squashed instructions iterated over during squash; mainly for profiling (Count)
system.cpu.squashedOperandsExamined           1658872                       # Number of squashed operands that are examined and possibly removed from graph (Count)
system.cpu.squashedNonSpecRemoved                  31                       # Number of squashed non-spec instructions that were removed (Count)
system.cpu.numIssuedDist::samples           126109672                       # Number of insts issued each cycle (Count)
system.cpu.numIssuedDist::mean               0.123121                       # Number of insts issued each cycle (Count)
system.cpu.numIssuedDist::stdev              0.609148                       # Number of insts issued each cycle (Count)
system.cpu.numIssuedDist::underflows                0      0.00%      0.00% # Number of insts issued each cycle (Count)
system.cpu.numIssuedDist::0                 117228835     92.96%     92.96% # Number of insts issued each cycle (Count)
system.cpu.numIssuedDist::1                   6724732      5.33%     98.29% # Number of insts issued each cycle (Count)
system.cpu.numIssuedDist::2                    560610      0.44%     98.73% # Number of insts issued each cycle (Count)
system.cpu.numIssuedDist::3                    356826      0.28%     99.02% # Number of insts issued each cycle (Count)
system.cpu.numIssuedDist::4                    296247      0.23%     99.25% # Number of insts issued each cycle (Count)
system.cpu.numIssuedDist::5                    364235      0.29%     99.54% # Number of insts issued each cycle (Count)
system.cpu.numIssuedDist::6                    498614      0.40%     99.94% # Number of insts issued each cycle (Count)
system.cpu.numIssuedDist::7                     24079      0.02%     99.96% # Number of insts issued each cycle (Count)
system.cpu.numIssuedDist::8                     55494      0.04%    100.00% # Number of insts issued each cycle (Count)
system.cpu.numIssuedDist::overflows                 0      0.00%    100.00% # Number of insts issued each cycle (Count)
system.cpu.numIssuedDist::min_value                 0                       # Number of insts issued each cycle (Count)
system.cpu.numIssuedDist::max_value                 8                       # Number of insts issued each cycle (Count)
system.cpu.numIssuedDist::total             126109672                       # Number of insts issued each cycle (Count)
system.cpu.statFuBusy::No_OpClass                   0      0.00%      0.00% # attempts to use FU when none available (Count)
system.cpu.statFuBusy::IntAlu                    5265      4.95%      4.95% # attempts to use FU when none available (Count)
system.cpu.statFuBusy::IntMult                      0      0.00%      4.95% # attempts to use FU when none available (Count)
system.cpu.statFuBusy::IntDiv                       0      0.00%      4.95% # attempts to use FU when none available (Count)
system.cpu.statFuBusy::FloatAdd                     0      0.00%      4.95% # attempts to use FU when none available (Count)
system.cpu.statFuBusy::FloatCmp                     0      0.00%      4.95% # attempts to use FU when none available (Count)
system.cpu.statFuBusy::FloatCvt                     0      0.00%      4.95% # attempts to use FU when none available (Count)
system.cpu.statFuBusy::FloatMult                    0      0.00%      4.95% # attempts to use FU when none available (Count)
system.cpu.statFuBusy::FloatMultAcc                 0      0.00%      4.95% # attempts to use FU when none available (Count)
system.cpu.statFuBusy::FloatDiv                     0      0.00%      4.95% # attempts to use FU when none available (Count)
system.cpu.statFuBusy::FloatMisc                    0      0.00%      4.95% # attempts to use FU when none available (Count)
system.cpu.statFuBusy::FloatSqrt                    0      0.00%      4.95% # attempts to use FU when none available (Count)
system.cpu.statFuBusy::SimdAdd                      0      0.00%      4.95% # attempts to use FU when none available (Count)
system.cpu.statFuBusy::SimdAddAcc                   0      0.00%      4.95% # attempts to use FU when none available (Count)
system.cpu.statFuBusy::SimdAlu                      0      0.00%      4.95% # attempts to use FU when none available (Count)
system.cpu.statFuBusy::SimdCmp                      0      0.00%      4.95% # attempts to use FU when none available (Count)
system.cpu.statFuBusy::SimdCvt                     10      0.01%      4.96% # attempts to use FU when none available (Count)
system.cpu.statFuBusy::SimdMisc                     7      0.01%      4.97% # attempts to use FU when none available (Count)
system.cpu.statFuBusy::SimdMult                     0      0.00%      4.97% # attempts to use FU when none available (Count)
system.cpu.statFuBusy::SimdMultAcc                  0      0.00%      4.97% # attempts to use FU when none available (Count)
system.cpu.statFuBusy::SimdShift                    0      0.00%      4.97% # attempts to use FU when none available (Count)
system.cpu.statFuBusy::SimdShiftAcc                 0      0.00%      4.97% # attempts to use FU when none available (Count)
system.cpu.statFuBusy::SimdDiv                      0      0.00%      4.97% # attempts to use FU when none available (Count)
system.cpu.statFuBusy::SimdSqrt                     0      0.00%      4.97% # attempts to use FU when none available (Count)
system.cpu.statFuBusy::SimdFloatAdd                 0      0.00%      4.97% # attempts to use FU when none available (Count)
system.cpu.statFuBusy::SimdFloatAlu                 0      0.00%      4.97% # attempts to use FU when none available (Count)
system.cpu.statFuBusy::SimdFloatCmp                 0      0.00%      4.97% # attempts to use FU when none available (Count)
system.cpu.statFuBusy::SimdFloatCvt                 0      0.00%      4.97% # attempts to use FU when none available (Count)
system.cpu.statFuBusy::SimdFloatDiv                 0      0.00%      4.97% # attempts to use FU when none available (Count)
system.cpu.statFuBusy::SimdFloatMisc                0      0.00%      4.97% # attempts to use FU when none available (Count)
system.cpu.statFuBusy::SimdFloatMult                0      0.00%      4.97% # attempts to use FU when none available (Count)
system.cpu.statFuBusy::SimdFloatMultAcc             0      0.00%      4.97% # attempts to use FU when none available (Count)
system.cpu.statFuBusy::SimdFloatSqrt                0      0.00%      4.97% # attempts to use FU when none available (Count)
system.cpu.statFuBusy::SimdReduceAdd                0      0.00%      4.97% # attempts to use FU when none available (Count)
system.cpu.statFuBusy::SimdReduceAlu                0      0.00%      4.97% # attempts to use FU when none available (Count)
system.cpu.statFuBusy::SimdReduceCmp                0      0.00%      4.97% # attempts to use FU when none available (Count)
system.cpu.statFuBusy::SimdFloatReduceAdd            0      0.00%      4.97% # attempts to use FU when none available (Count)
system.cpu.statFuBusy::SimdFloatReduceCmp            0      0.00%      4.97% # attempts to use FU when none available (Count)
system.cpu.statFuBusy::SimdAes                      0      0.00%      4.97% # attempts to use FU when none available (Count)
system.cpu.statFuBusy::SimdAesMix                   0      0.00%      4.97% # attempts to use FU when none available (Count)
system.cpu.statFuBusy::SimdSha1Hash                 0      0.00%      4.97% # attempts to use FU when none available (Count)
system.cpu.statFuBusy::SimdSha1Hash2                0      0.00%      4.97% # attempts to use FU when none available (Count)
system.cpu.statFuBusy::SimdSha256Hash               0      0.00%      4.97% # attempts to use FU when none available (Count)
system.cpu.statFuBusy::SimdSha256Hash2              0      0.00%      4.97% # attempts to use FU when none available (Count)
system.cpu.statFuBusy::SimdShaSigma2                0      0.00%      4.97% # attempts to use FU when none available (Count)
system.cpu.statFuBusy::SimdShaSigma3                0      0.00%      4.97% # attempts to use FU when none available (Count)
system.cpu.statFuBusy::SimdPredAlu                  0      0.00%      4.97% # attempts to use FU when none available (Count)
system.cpu.statFuBusy::MemRead                    729      0.69%      5.65% # attempts to use FU when none available (Count)
system.cpu.statFuBusy::MemWrite                 15025     14.13%     19.78% # attempts to use FU when none available (Count)
system.cpu.statFuBusy::FloatMemRead             14235     13.38%     33.16% # attempts to use FU when none available (Count)
system.cpu.statFuBusy::FloatMemWrite            71085     66.84%    100.00% # attempts to use FU when none available (Count)
system.cpu.statFuBusy::IprAccess                    0      0.00%    100.00% # attempts to use FU when none available (Count)
system.cpu.statFuBusy::InstPrefetch                 0      0.00%    100.00% # attempts to use FU when none available (Count)
system.cpu.statIssuedInstType_0::No_OpClass         1820      0.01%      0.01% # Number of instructions issued per FU type, per thread (Count)
system.cpu.statIssuedInstType_0::IntAlu       5367401     34.57%     34.58% # Number of instructions issued per FU type, per thread (Count)
system.cpu.statIssuedInstType_0::IntMult           53      0.00%     34.58% # Number of instructions issued per FU type, per thread (Count)
system.cpu.statIssuedInstType_0::IntDiv          1820      0.01%     34.59% # Number of instructions issued per FU type, per thread (Count)
system.cpu.statIssuedInstType_0::FloatAdd      1162899      7.49%     42.08% # Number of instructions issued per FU type, per thread (Count)
system.cpu.statIssuedInstType_0::FloatCmp            0      0.00%     42.08% # Number of instructions issued per FU type, per thread (Count)
system.cpu.statIssuedInstType_0::FloatCvt           80      0.00%     42.08% # Number of instructions issued per FU type, per thread (Count)
system.cpu.statIssuedInstType_0::FloatMult            0      0.00%     42.08% # Number of instructions issued per FU type, per thread (Count)
system.cpu.statIssuedInstType_0::FloatMultAcc            0      0.00%     42.08% # Number of instructions issued per FU type, per thread (Count)
system.cpu.statIssuedInstType_0::FloatDiv            0      0.00%     42.08% # Number of instructions issued per FU type, per thread (Count)
system.cpu.statIssuedInstType_0::FloatMisc            0      0.00%     42.08% # Number of instructions issued per FU type, per thread (Count)
system.cpu.statIssuedInstType_0::FloatSqrt            0      0.00%     42.08% # Number of instructions issued per FU type, per thread (Count)
system.cpu.statIssuedInstType_0::SimdAdd            0      0.00%     42.08% # Number of instructions issued per FU type, per thread (Count)
system.cpu.statIssuedInstType_0::SimdAddAcc            0      0.00%     42.08% # Number of instructions issued per FU type, per thread (Count)
system.cpu.statIssuedInstType_0::SimdAlu            4      0.00%     42.08% # Number of instructions issued per FU type, per thread (Count)
system.cpu.statIssuedInstType_0::SimdCmp            0      0.00%     42.08% # Number of instructions issued per FU type, per thread (Count)
system.cpu.statIssuedInstType_0::SimdCvt           85      0.00%     42.08% # Number of instructions issued per FU type, per thread (Count)
system.cpu.statIssuedInstType_0::SimdMisc           97      0.00%     42.08% # Number of instructions issued per FU type, per thread (Count)
system.cpu.statIssuedInstType_0::SimdMult            0      0.00%     42.08% # Number of instructions issued per FU type, per thread (Count)
system.cpu.statIssuedInstType_0::SimdMultAcc            0      0.00%     42.08% # Number of instructions issued per FU type, per thread (Count)
system.cpu.statIssuedInstType_0::SimdShift            0      0.00%     42.08% # Number of instructions issued per FU type, per thread (Count)
system.cpu.statIssuedInstType_0::SimdShiftAcc            0      0.00%     42.08% # Number of instructions issued per FU type, per thread (Count)
system.cpu.statIssuedInstType_0::SimdDiv            0      0.00%     42.08% # Number of instructions issued per FU type, per thread (Count)
system.cpu.statIssuedInstType_0::SimdSqrt            0      0.00%     42.08% # Number of instructions issued per FU type, per thread (Count)
system.cpu.statIssuedInstType_0::SimdFloatAdd            0      0.00%     42.08% # Number of instructions issued per FU type, per thread (Count)
system.cpu.statIssuedInstType_0::SimdFloatAlu            0      0.00%     42.08% # Number of instructions issued per FU type, per thread (Count)
system.cpu.statIssuedInstType_0::SimdFloatCmp            0      0.00%     42.08% # Number of instructions issued per FU type, per thread (Count)
system.cpu.statIssuedInstType_0::SimdFloatCvt            0      0.00%     42.08% # Number of instructions issued per FU type, per thread (Count)
system.cpu.statIssuedInstType_0::SimdFloatDiv            0      0.00%     42.08% # Number of instructions issued per FU type, per thread (Count)
system.cpu.statIssuedInstType_0::SimdFloatMisc            0      0.00%     42.08% # Number of instructions issued per FU type, per thread (Count)
system.cpu.statIssuedInstType_0::SimdFloatMult            0      0.00%     42.08% # Number of instructions issued per FU type, per thread (Count)
system.cpu.statIssuedInstType_0::SimdFloatMultAcc            0      0.00%     42.08% # Number of instructions issued per FU type, per thread (Count)
system.cpu.statIssuedInstType_0::SimdFloatSqrt            0      0.00%     42.08% # Number of instructions issued per FU type, per thread (Count)
system.cpu.statIssuedInstType_0::SimdReduceAdd            0      0.00%     42.08% # Number of instructions issued per FU type, per thread (Count)
system.cpu.statIssuedInstType_0::SimdReduceAlu            0      0.00%     42.08% # Number of instructions issued per FU type, per thread (Count)
system.cpu.statIssuedInstType_0::SimdReduceCmp            0      0.00%     42.08% # Number of instructions issued per FU type, per thread (Count)
system.cpu.statIssuedInstType_0::SimdFloatReduceAdd            0      0.00%     42.08% # Number of instructions issued per FU type, per thread (Count)
system.cpu.statIssuedInstType_0::SimdFloatReduceCmp            0      0.00%     42.08% # Number of instructions issued per FU type, per thread (Count)
system.cpu.statIssuedInstType_0::SimdAes            0      0.00%     42.08% # Number of instructions issued per FU type, per thread (Count)
system.cpu.statIssuedInstType_0::SimdAesMix            0      0.00%     42.08% # Number of instructions issued per FU type, per thread (Count)
system.cpu.statIssuedInstType_0::SimdSha1Hash            0      0.00%     42.08% # Number of instructions issued per FU type, per thread (Count)
system.cpu.statIssuedInstType_0::SimdSha1Hash2            0      0.00%     42.08% # Number of instructions issued per FU type, per thread (Count)
system.cpu.statIssuedInstType_0::SimdSha256Hash            0      0.00%     42.08% # Number of instructions issued per FU type, per thread (Count)
system.cpu.statIssuedInstType_0::SimdSha256Hash2            0      0.00%     42.08% # Number of instructions issued per FU type, per thread (Count)
system.cpu.statIssuedInstType_0::SimdShaSigma2            0      0.00%     42.08% # Number of instructions issued per FU type, per thread (Count)
system.cpu.statIssuedInstType_0::SimdShaSigma3            0      0.00%     42.08% # Number of instructions issued per FU type, per thread (Count)
system.cpu.statIssuedInstType_0::SimdPredAlu            0      0.00%     42.08% # Number of instructions issued per FU type, per thread (Count)
system.cpu.statIssuedInstType_0::MemRead        74081      0.48%     42.56% # Number of instructions issued per FU type, per thread (Count)
system.cpu.statIssuedInstType_0::MemWrite       414138      2.67%     45.23% # Number of instructions issued per FU type, per thread (Count)
system.cpu.statIssuedInstType_0::FloatMemRead      1163070      7.49%     52.72% # Number of instructions issued per FU type, per thread (Count)
system.cpu.statIssuedInstType_0::FloatMemWrite      7341234     47.28%    100.00% # Number of instructions issued per FU type, per thread (Count)
system.cpu.statIssuedInstType_0::IprAccess            0      0.00%    100.00% # Number of instructions issued per FU type, per thread (Count)
system.cpu.statIssuedInstType_0::InstPrefetch            0      0.00%    100.00% # Number of instructions issued per FU type, per thread (Count)
system.cpu.statIssuedInstType_0::total       15526782                       # Number of instructions issued per FU type, per thread (Count)
system.cpu.issueRate                         0.123073                       # Inst issue rate ((Count/Cycle))
system.cpu.fuBusy                              106356                       # FU busy when requested (Count)
system.cpu.fuBusyRate                        0.006850                       # FU busy rate (busy events/executed inst) ((Count/Count))
system.cpu.intInstQueueReads                137850267                       # Number of integer instruction queue reads (Count)
system.cpu.intInstQueueWrites                 6466761                       # Number of integer instruction queue writes (Count)
system.cpu.intInstQueueWakeupAccesses         5809445                       # Number of integer instruction queue wakeup accesses (Count)
system.cpu.fpInstQueueReads                  19420366                       # Number of floating instruction queue reads (Count)
system.cpu.fpInstQueueWrites                 10236254                       # Number of floating instruction queue writes (Count)
system.cpu.fpInstQueueWakeupAccesses          9411634                       # Number of floating instruction queue wakeup accesses (Count)
system.cpu.vecInstQueueReads                        0                       # Number of vector instruction queue reads (Count)
system.cpu.vecInstQueueWrites                       0                       # Number of vector instruction queue writes (Count)
system.cpu.vecInstQueueWakeupAccesses               0                       # Number of vector instruction queue wakeup accesses (Count)
system.cpu.intAluAccesses                     5878467                       # Number of integer alu accesses (Count)
system.cpu.fpAluAccesses                      9752851                       # Number of floating point alu accesses (Count)
system.cpu.vecAluAccesses                           0                       # Number of vector alu accesses (Count)
system.cpu.numInsts                          15516622                       # Number of executed instructions (Count)
system.cpu.numLoadInsts                       1234937                       # Number of load instructions executed (Count)
system.cpu.numSquashedInsts                     10160                       # Number of squashed instructions skipped in execute (Count)
system.cpu.numSwp                                   0                       # Number of swp insts executed (Count)
system.cpu.numNop                                   0                       # Number of nop insts executed (Count)
system.cpu.numRefs                            8989730                       # Number of memory reference insts executed (Count)
system.cpu.numBranches                         429202                       # Number of branches executed (Count)
system.cpu.numStoreInsts                      7754793                       # Number of stores executed (Count)
system.cpu.numRate                           0.122992                       # Inst execution rate ((Count/Cycle))
system.cpu.timesIdled                             584                       # Number of times that the entire CPU went into an idle state and unscheduled itself (Count)
system.cpu.idleCycles                           49793                       # Total number of cycles that the CPU has spent unscheduled due to idling (Cycle)
system.cpu.committedInsts                    10000000                       # Number of Instructions Simulated (Count)
system.cpu.committedOps                      14513442                       # Number of Ops (including micro ops) Simulated (Count)
system.cpu.cpi                              12.615946                       # CPI: Cycles Per Instruction ((Cycle/Count))
system.cpu.totalCpi                         12.615946                       # CPI: Total CPI of All Threads ((Cycle/Count))
system.cpu.ipc                               0.079265                       # IPC: Instructions Per Cycle ((Count/Cycle))
system.cpu.totalIpc                          0.079265                       # IPC: Total IPC of All Threads ((Count/Cycle))
system.cpu.intRegfileReads                   13046309                       # Number of integer regfile reads (Count)
system.cpu.intRegfileWrites                   4579781                       # Number of integer regfile writes (Count)
system.cpu.fpRegfileReads                     7342302                       # Number of floating regfile reads (Count)
system.cpu.fpRegfileWrites                    2326107                       # Number of floating regfile writes (Count)
system.cpu.ccRegfileReads                     2155225                       # number of cc regfile reads (Count)
system.cpu.ccRegfileWrites                    2475243                       # number of cc regfile writes (Count)
system.cpu.miscRegfileReads                  11023691                       # number of misc regfile reads (Count)
system.cpu.miscRegfileWrites                       45                       # number of misc regfile writes (Count)
system.cpu.MemDepUnit__0.insertedLoads        1244852                       # Number of loads inserted to the mem dependence unit. (Count)
system.cpu.MemDepUnit__0.insertedStores       7757747                       # Number of stores inserted to the mem dependence unit. (Count)
system.cpu.MemDepUnit__0.conflictingLoads         1501                       # Number of conflicting loads. (Count)
system.cpu.MemDepUnit__0.conflictingStores          761                       # Number of conflicting stores. (Count)
system.cpu.MemDepUnit__1.insertedLoads              0                       # Number of loads inserted to the mem dependence unit. (Count)
system.cpu.MemDepUnit__1.insertedStores             0                       # Number of stores inserted to the mem dependence unit. (Count)
system.cpu.MemDepUnit__1.conflictingLoads            0                       # Number of conflicting loads. (Count)
system.cpu.MemDepUnit__1.conflictingStores            0                       # Number of conflicting stores. (Count)
system.cpu.MemDepUnit__2.insertedLoads              0                       # Number of loads inserted to the mem dependence unit. (Count)
system.cpu.MemDepUnit__2.insertedStores             0                       # Number of stores inserted to the mem dependence unit. (Count)
system.cpu.MemDepUnit__2.conflictingLoads            0                       # Number of conflicting loads. (Count)
system.cpu.MemDepUnit__2.conflictingStores            0                       # Number of conflicting stores. (Count)
system.cpu.MemDepUnit__3.insertedLoads              0                       # Number of loads inserted to the mem dependence unit. (Count)
system.cpu.MemDepUnit__3.insertedStores             0                       # Number of stores inserted to the mem dependence unit. (Count)
system.cpu.MemDepUnit__3.conflictingLoads            0                       # Number of conflicting loads. (Count)
system.cpu.MemDepUnit__3.conflictingStores            0                       # Number of conflicting stores. (Count)
system.cpu.branchPred.lookups                  486240                       # Number of BP lookups (Count)
system.cpu.branchPred.condPredicted            475672                       # Number of conditional branches predicted (Count)
system.cpu.branchPred.condIncorrect              5496                       # Number of conditional branches incorrect (Count)
system.cpu.branchPred.BTBLookups               446619                       # Number of BTB lookups (Count)
system.cpu.branchPred.BTBHits                  444713                       # Number of BTB hits (Count)
system.cpu.branchPred.BTBHitRatio            0.995732                       # BTB Hit Ratio (Ratio)
system.cpu.branchPred.RASUsed                    2460                       # Number of times the RAS was used to get a target. (Count)
system.cpu.branchPred.RASIncorrect                  5                       # Number of incorrect RAS predictions. (Count)
system.cpu.branchPred.indirectLookups             961                       # Number of indirect predictor lookups. (Count)
system.cpu.branchPred.indirectHits                159                       # Number of indirect target hits. (Count)
system.cpu.branchPred.indirectMisses              802                       # Number of indirect misses. (Count)
system.cpu.branchPred.indirectMispredicted          179                       # Number of mispredicted indirect branches. (Count)
system.cpu.commit.commitSquashedInsts         1077920                       # The number of squashed insts skipped by commit (Count)
system.cpu.commit.commitNonSpecStalls              45                       # The number of times commit has been forced to stall to communicate backwards (Count)
system.cpu.commit.branchMispredicts              5417                       # The number of times a branch was mispredicted (Count)
system.cpu.commit.numCommittedDist::samples    125958949                       # Number of insts commited each cycle (Count)
system.cpu.commit.numCommittedDist::mean     0.115224                       # Number of insts commited each cycle (Count)
system.cpu.commit.numCommittedDist::stdev     0.571322                       # Number of insts commited each cycle (Count)
system.cpu.commit.numCommittedDist::underflows            0      0.00%      0.00% # Number of insts commited each cycle (Count)
system.cpu.commit.numCommittedDist::0       117632197     93.39%     93.39% # Number of insts commited each cycle (Count)
system.cpu.commit.numCommittedDist::1         5831875      4.63%     98.02% # Number of insts commited each cycle (Count)
system.cpu.commit.numCommittedDist::2          897467      0.71%     98.73% # Number of insts commited each cycle (Count)
system.cpu.commit.numCommittedDist::3          774500      0.61%     99.35% # Number of insts commited each cycle (Count)
system.cpu.commit.numCommittedDist::4          116564      0.09%     99.44% # Number of insts commited each cycle (Count)
system.cpu.commit.numCommittedDist::5          410850      0.33%     99.77% # Number of insts commited each cycle (Count)
system.cpu.commit.numCommittedDist::6           83129      0.07%     99.83% # Number of insts commited each cycle (Count)
system.cpu.commit.numCommittedDist::7          155083      0.12%     99.95% # Number of insts commited each cycle (Count)
system.cpu.commit.numCommittedDist::8           57284      0.05%    100.00% # Number of insts commited each cycle (Count)
system.cpu.commit.numCommittedDist::overflows            0      0.00%    100.00% # Number of insts commited each cycle (Count)
system.cpu.commit.numCommittedDist::min_value            0                       # Number of insts commited each cycle (Count)
system.cpu.commit.numCommittedDist::max_value            8                       # Number of insts commited each cycle (Count)
system.cpu.commit.numCommittedDist::total    125958949                       # Number of insts commited each cycle (Count)
system.cpu.commit.instsCommitted             10000000                       # Number of instructions committed (Count)
system.cpu.commit.opsCommitted               14513442                       # Number of ops (including micro ops) committed (Count)
system.cpu.commit.memRefs                     8432855                       # Number of memory references committed (Count)
system.cpu.commit.loads                       1137790                       # Number of loads committed (Count)
system.cpu.commit.amos                              0                       # Number of atomic instructions committed (Count)
system.cpu.commit.membars                           0                       # Number of memory barriers committed (Count)
system.cpu.commit.branches                     403260                       # Number of branches committed (Count)
system.cpu.commit.vectorInstructions                0                       # Number of committed Vector instructions. (Count)
system.cpu.commit.floating                    9098853                       # Number of committed floating point instructions. (Count)
system.cpu.commit.integer                    13418028                       # Number of committed integer instructions. (Count)
system.cpu.commit.functionCalls                  1148                       # Number of function calls committed. (Count)
system.cpu.commit.committedInstType_0::No_OpClass          650      0.00%      0.00% # Class of committed instruction (Count)
system.cpu.commit.committedInstType_0::IntAlu      4986183     34.36%     34.36% # Class of committed instruction (Count)
system.cpu.commit.committedInstType_0::IntMult           28      0.00%     34.36% # Class of committed instruction (Count)
system.cpu.commit.committedInstType_0::IntDiv         1668      0.01%     34.37% # Class of committed instruction (Count)
system.cpu.commit.committedInstType_0::FloatAdd      1091824      7.52%     41.89% # Class of committed instruction (Count)
system.cpu.commit.committedInstType_0::FloatCmp            0      0.00%     41.89% # Class of committed instruction (Count)
system.cpu.commit.committedInstType_0::FloatCvt           80      0.00%     41.90% # Class of committed instruction (Count)
system.cpu.commit.committedInstType_0::FloatMult            0      0.00%     41.90% # Class of committed instruction (Count)
system.cpu.commit.committedInstType_0::FloatMultAcc            0      0.00%     41.90% # Class of committed instruction (Count)
system.cpu.commit.committedInstType_0::FloatDiv            0      0.00%     41.90% # Class of committed instruction (Count)
system.cpu.commit.committedInstType_0::FloatMisc            0      0.00%     41.90% # Class of committed instruction (Count)
system.cpu.commit.committedInstType_0::FloatSqrt            0      0.00%     41.90% # Class of committed instruction (Count)
system.cpu.commit.committedInstType_0::SimdAdd            0      0.00%     41.90% # Class of committed instruction (Count)
system.cpu.commit.committedInstType_0::SimdAddAcc            0      0.00%     41.90% # Class of committed instruction (Count)
system.cpu.commit.committedInstType_0::SimdAlu            4      0.00%     41.90% # Class of committed instruction (Count)
system.cpu.commit.committedInstType_0::SimdCmp            0      0.00%     41.90% # Class of committed instruction (Count)
system.cpu.commit.committedInstType_0::SimdCvt           68      0.00%     41.90% # Class of committed instruction (Count)
system.cpu.commit.committedInstType_0::SimdMisc           82      0.00%     41.90% # Class of committed instruction (Count)
system.cpu.commit.committedInstType_0::SimdMult            0      0.00%     41.90% # Class of committed instruction (Count)
system.cpu.commit.committedInstType_0::SimdMultAcc            0      0.00%     41.90% # Class of committed instruction (Count)
system.cpu.commit.committedInstType_0::SimdShift            0      0.00%     41.90% # Class of committed instruction (Count)
system.cpu.commit.committedInstType_0::SimdShiftAcc            0      0.00%     41.90% # Class of committed instruction (Count)
system.cpu.commit.committedInstType_0::SimdDiv            0      0.00%     41.90% # Class of committed instruction (Count)
system.cpu.commit.committedInstType_0::SimdSqrt            0      0.00%     41.90% # Class of committed instruction (Count)
system.cpu.commit.committedInstType_0::SimdFloatAdd            0      0.00%     41.90% # Class of committed instruction (Count)
system.cpu.commit.committedInstType_0::SimdFloatAlu            0      0.00%     41.90% # Class of committed instruction (Count)
system.cpu.commit.committedInstType_0::SimdFloatCmp            0      0.00%     41.90% # Class of committed instruction (Count)
system.cpu.commit.committedInstType_0::SimdFloatCvt            0      0.00%     41.90% # Class of committed instruction (Count)
system.cpu.commit.committedInstType_0::SimdFloatDiv            0      0.00%     41.90% # Class of committed instruction (Count)
system.cpu.commit.committedInstType_0::SimdFloatMisc            0      0.00%     41.90% # Class of committed instruction (Count)
system.cpu.commit.committedInstType_0::SimdFloatMult            0      0.00%     41.90% # Class of committed instruction (Count)
system.cpu.commit.committedInstType_0::SimdFloatMultAcc            0      0.00%     41.90% # Class of committed instruction (Count)
system.cpu.commit.committedInstType_0::SimdFloatSqrt            0      0.00%     41.90% # Class of committed instruction (Count)
system.cpu.commit.committedInstType_0::SimdReduceAdd            0      0.00%     41.90% # Class of committed instruction (Count)
system.cpu.commit.committedInstType_0::SimdReduceAlu            0      0.00%     41.90% # Class of committed instruction (Count)
system.cpu.commit.committedInstType_0::SimdReduceCmp            0      0.00%     41.90% # Class of committed instruction (Count)
system.cpu.commit.committedInstType_0::SimdFloatReduceAdd            0      0.00%     41.90% # Class of committed instruction (Count)
system.cpu.commit.committedInstType_0::SimdFloatReduceCmp            0      0.00%     41.90% # Class of committed instruction (Count)
system.cpu.commit.committedInstType_0::SimdAes            0      0.00%     41.90% # Class of committed instruction (Count)
system.cpu.commit.committedInstType_0::SimdAesMix            0      0.00%     41.90% # Class of committed instruction (Count)
system.cpu.commit.committedInstType_0::SimdSha1Hash            0      0.00%     41.90% # Class of committed instruction (Count)
system.cpu.commit.committedInstType_0::SimdSha1Hash2            0      0.00%     41.90% # Class of committed instruction (Count)
system.cpu.commit.committedInstType_0::SimdSha256Hash            0      0.00%     41.90% # Class of committed instruction (Count)
system.cpu.commit.committedInstType_0::SimdSha256Hash2            0      0.00%     41.90% # Class of committed instruction (Count)
system.cpu.commit.committedInstType_0::SimdShaSigma2            0      0.00%     41.90% # Class of committed instruction (Count)
system.cpu.commit.committedInstType_0::SimdShaSigma3            0      0.00%     41.90% # Class of committed instruction (Count)
system.cpu.commit.committedInstType_0::SimdPredAlu            0      0.00%     41.90% # Class of committed instruction (Count)
system.cpu.commit.committedInstType_0::MemRead        45814      0.32%     42.21% # Class of committed instruction (Count)
system.cpu.commit.committedInstType_0::MemWrite       380282      2.62%     44.83% # Class of committed instruction (Count)
system.cpu.commit.committedInstType_0::FloatMemRead      1091976      7.52%     52.36% # Class of committed instruction (Count)
system.cpu.commit.committedInstType_0::FloatMemWrite      6914783     47.64%    100.00% # Class of committed instruction (Count)
system.cpu.commit.committedInstType_0::IprAccess            0      0.00%    100.00% # Class of committed instruction (Count)
system.cpu.commit.committedInstType_0::InstPrefetch            0      0.00%    100.00% # Class of committed instruction (Count)
system.cpu.commit.committedInstType_0::total     14513442                       # Class of committed instruction (Count)
system.cpu.commit.commitEligibleSamples         57284                       # number cycles where commit BW limit reached (Cycle)
system.cpu.dcache.demandHits::cpu.data        7600944                       # number of demand (read+write) hits (Count)
system.cpu.dcache.demandHits::total           7600944                       # number of demand (read+write) hits (Count)
system.cpu.dcache.overallHits::cpu.data       7600944                       # number of overall hits (Count)
system.cpu.dcache.overallHits::total          7600944                       # number of overall hits (Count)
system.cpu.dcache.demandMisses::cpu.data       922435                       # number of demand (read+write) misses (Count)
system.cpu.dcache.demandMisses::total          922435                       # number of demand (read+write) misses (Count)
system.cpu.dcache.overallMisses::cpu.data       922435                       # number of overall misses (Count)
system.cpu.dcache.overallMisses::total         922435                       # number of overall misses (Count)
system.cpu.dcache.demandMissLatency::cpu.data  56769635985                       # number of demand (read+write) miss ticks (Tick)
system.cpu.dcache.demandMissLatency::total  56769635985                       # number of demand (read+write) miss ticks (Tick)
system.cpu.dcache.overallMissLatency::cpu.data  56769635985                       # number of overall miss ticks (Tick)
system.cpu.dcache.overallMissLatency::total  56769635985                       # number of overall miss ticks (Tick)
system.cpu.dcache.demandAccesses::cpu.data      8523379                       # number of demand (read+write) accesses (Count)
system.cpu.dcache.demandAccesses::total       8523379                       # number of demand (read+write) accesses (Count)
system.cpu.dcache.overallAccesses::cpu.data      8523379                       # number of overall (read+write) accesses (Count)
system.cpu.dcache.overallAccesses::total      8523379                       # number of overall (read+write) accesses (Count)
system.cpu.dcache.demandMissRate::cpu.data     0.108224                       # miss rate for demand accesses (Ratio)
system.cpu.dcache.demandMissRate::total      0.108224                       # miss rate for demand accesses (Ratio)
system.cpu.dcache.overallMissRate::cpu.data     0.108224                       # miss rate for overall accesses (Ratio)
system.cpu.dcache.overallMissRate::total     0.108224                       # miss rate for overall accesses (Ratio)
system.cpu.dcache.demandAvgMissLatency::cpu.data 61543.237177                       # average overall miss latency in ticks ((Tick/Count))
system.cpu.dcache.demandAvgMissLatency::total 61543.237177                       # average overall miss latency in ticks ((Tick/Count))
system.cpu.dcache.overallAvgMissLatency::cpu.data 61543.237177                       # average overall miss latency ((Tick/Count))
system.cpu.dcache.overallAvgMissLatency::total 61543.237177                       # average overall miss latency ((Tick/Count))
system.cpu.dcache.blockedCycles::no_mshrs        15833                       # number of cycles access was blocked (Cycle)
system.cpu.dcache.blockedCycles::no_targets          151                       # number of cycles access was blocked (Cycle)
system.cpu.dcache.blockedCauses::no_mshrs          327                       # number of times access was blocked (Count)
system.cpu.dcache.blockedCauses::no_targets            1                       # number of times access was blocked (Count)
system.cpu.dcache.avgBlocked::no_mshrs      48.418960                       # average number of cycles each access was blocked ((Cycle/Count))
system.cpu.dcache.avgBlocked::no_targets          151                       # average number of cycles each access was blocked ((Cycle/Count))
system.cpu.dcache.writebacks::writebacks       909946                       # number of writebacks (Count)
system.cpu.dcache.writebacks::total            909946                       # number of writebacks (Count)
system.cpu.dcache.demandMshrHits::cpu.data         9546                       # number of demand (read+write) MSHR hits (Count)
system.cpu.dcache.demandMshrHits::total          9546                       # number of demand (read+write) MSHR hits (Count)
system.cpu.dcache.overallMshrHits::cpu.data         9546                       # number of overall MSHR hits (Count)
system.cpu.dcache.overallMshrHits::total         9546                       # number of overall MSHR hits (Count)
system.cpu.dcache.demandMshrMisses::cpu.data       912889                       # number of demand (read+write) MSHR misses (Count)
system.cpu.dcache.demandMshrMisses::total       912889                       # number of demand (read+write) MSHR misses (Count)
system.cpu.dcache.overallMshrMisses::cpu.data       912889                       # number of overall MSHR misses (Count)
system.cpu.dcache.overallMshrMisses::total       912889                       # number of overall MSHR misses (Count)
system.cpu.dcache.demandMshrMissLatency::cpu.data  55406058485                       # number of demand (read+write) MSHR miss ticks (Tick)
system.cpu.dcache.demandMshrMissLatency::total  55406058485                       # number of demand (read+write) MSHR miss ticks (Tick)
system.cpu.dcache.overallMshrMissLatency::cpu.data  55406058485                       # number of overall MSHR miss ticks (Tick)
system.cpu.dcache.overallMshrMissLatency::total  55406058485                       # number of overall MSHR miss ticks (Tick)
system.cpu.dcache.demandMshrMissRate::cpu.data     0.107104                       # mshr miss ratio for demand accesses (Ratio)
system.cpu.dcache.demandMshrMissRate::total     0.107104                       # mshr miss ratio for demand accesses (Ratio)
system.cpu.dcache.overallMshrMissRate::cpu.data     0.107104                       # mshr miss ratio for overall accesses (Ratio)
system.cpu.dcache.overallMshrMissRate::total     0.107104                       # mshr miss ratio for overall accesses (Ratio)
system.cpu.dcache.demandAvgMshrMissLatency::cpu.data 60693.094653                       # average overall mshr miss latency ((Tick/Count))
system.cpu.dcache.demandAvgMshrMissLatency::total 60693.094653                       # average overall mshr miss latency ((Tick/Count))
system.cpu.dcache.overallAvgMshrMissLatency::cpu.data 60693.094653                       # average overall mshr miss latency ((Tick/Count))
system.cpu.dcache.overallAvgMshrMissLatency::total 60693.094653                       # average overall mshr miss latency ((Tick/Count))
system.cpu.dcache.replacements                 912376                       # number of replacements (Count)
system.cpu.dcache.ReadReq.hits::cpu.data      1216256                       # number of ReadReq hits (Count)
system.cpu.dcache.ReadReq.hits::total         1216256                       # number of ReadReq hits (Count)
system.cpu.dcache.ReadReq.misses::cpu.data        12086                       # number of ReadReq misses (Count)
system.cpu.dcache.ReadReq.misses::total         12086                       # number of ReadReq misses (Count)
system.cpu.dcache.ReadReq.missLatency::cpu.data    609226500                       # number of ReadReq miss ticks (Tick)
system.cpu.dcache.ReadReq.missLatency::total    609226500                       # number of ReadReq miss ticks (Tick)
system.cpu.dcache.ReadReq.accesses::cpu.data      1228342                       # number of ReadReq accesses(hits+misses) (Count)
system.cpu.dcache.ReadReq.accesses::total      1228342                       # number of ReadReq accesses(hits+misses) (Count)
system.cpu.dcache.ReadReq.missRate::cpu.data     0.009839                       # miss rate for ReadReq accesses (Ratio)
system.cpu.dcache.ReadReq.missRate::total     0.009839                       # miss rate for ReadReq accesses (Ratio)
system.cpu.dcache.ReadReq.avgMissLatency::cpu.data 50407.620387                       # average ReadReq miss latency ((Tick/Count))
system.cpu.dcache.ReadReq.avgMissLatency::total 50407.620387                       # average ReadReq miss latency ((Tick/Count))
system.cpu.dcache.ReadReq.mshrHits::cpu.data         9538                       # number of ReadReq MSHR hits (Count)
system.cpu.dcache.ReadReq.mshrHits::total         9538                       # number of ReadReq MSHR hits (Count)
system.cpu.dcache.ReadReq.mshrMisses::cpu.data         2548                       # number of ReadReq MSHR misses (Count)
system.cpu.dcache.ReadReq.mshrMisses::total         2548                       # number of ReadReq MSHR misses (Count)
system.cpu.dcache.ReadReq.mshrMissLatency::cpu.data    156273000                       # number of ReadReq MSHR miss ticks (Tick)
system.cpu.dcache.ReadReq.mshrMissLatency::total    156273000                       # number of ReadReq MSHR miss ticks (Tick)
system.cpu.dcache.ReadReq.mshrMissRate::cpu.data     0.002074                       # mshr miss rate for ReadReq accesses (Ratio)
system.cpu.dcache.ReadReq.mshrMissRate::total     0.002074                       # mshr miss rate for ReadReq accesses (Ratio)
system.cpu.dcache.ReadReq.avgMshrMissLatency::cpu.data 61331.632653                       # average ReadReq mshr miss latency ((Tick/Count))
system.cpu.dcache.ReadReq.avgMshrMissLatency::total 61331.632653                       # average ReadReq mshr miss latency ((Tick/Count))
system.cpu.dcache.WriteReq.hits::cpu.data      6384688                       # number of WriteReq hits (Count)
system.cpu.dcache.WriteReq.hits::total        6384688                       # number of WriteReq hits (Count)
system.cpu.dcache.WriteReq.misses::cpu.data       910349                       # number of WriteReq misses (Count)
system.cpu.dcache.WriteReq.misses::total       910349                       # number of WriteReq misses (Count)
system.cpu.dcache.WriteReq.missLatency::cpu.data  56160409485                       # number of WriteReq miss ticks (Tick)
system.cpu.dcache.WriteReq.missLatency::total  56160409485                       # number of WriteReq miss ticks (Tick)
system.cpu.dcache.WriteReq.accesses::cpu.data      7295037                       # number of WriteReq accesses(hits+misses) (Count)
system.cpu.dcache.WriteReq.accesses::total      7295037                       # number of WriteReq accesses(hits+misses) (Count)
system.cpu.dcache.WriteReq.missRate::cpu.data     0.124790                       # miss rate for WriteReq accesses (Ratio)
system.cpu.dcache.WriteReq.missRate::total     0.124790                       # miss rate for WriteReq accesses (Ratio)
system.cpu.dcache.WriteReq.avgMissLatency::cpu.data 61691.076153                       # average WriteReq miss latency ((Tick/Count))
system.cpu.dcache.WriteReq.avgMissLatency::total 61691.076153                       # average WriteReq miss latency ((Tick/Count))
system.cpu.dcache.WriteReq.mshrHits::cpu.data            8                       # number of WriteReq MSHR hits (Count)
system.cpu.dcache.WriteReq.mshrHits::total            8                       # number of WriteReq MSHR hits (Count)
system.cpu.dcache.WriteReq.mshrMisses::cpu.data       910341                       # number of WriteReq MSHR misses (Count)
system.cpu.dcache.WriteReq.mshrMisses::total       910341                       # number of WriteReq MSHR misses (Count)
system.cpu.dcache.WriteReq.mshrMissLatency::cpu.data  55249785485                       # number of WriteReq MSHR miss ticks (Tick)
system.cpu.dcache.WriteReq.mshrMissLatency::total  55249785485                       # number of WriteReq MSHR miss ticks (Tick)
system.cpu.dcache.WriteReq.mshrMissRate::cpu.data     0.124789                       # mshr miss rate for WriteReq accesses (Ratio)
system.cpu.dcache.WriteReq.mshrMissRate::total     0.124789                       # mshr miss rate for WriteReq accesses (Ratio)
system.cpu.dcache.WriteReq.avgMshrMissLatency::cpu.data 60691.307417                       # average WriteReq mshr miss latency ((Tick/Count))
system.cpu.dcache.WriteReq.avgMshrMissLatency::total 60691.307417                       # average WriteReq mshr miss latency ((Tick/Count))
system.cpu.dcache.power_state.pwrStateResidencyTicks::UNDEFINED  63079732000                       # Cumulative time (in ticks) in various power states (Tick)
system.cpu.dcache.tags.tagsInUse           511.783355                       # Average ticks per tags in use ((Tick/Count))
system.cpu.dcache.tags.totalRefs              8513832                       # Total number of references to valid blocks. (Count)
system.cpu.dcache.tags.sampledRefs             912888                       # Sample count of references to valid blocks. (Count)
system.cpu.dcache.tags.avgRefs               9.326261                       # Average number of references to valid blocks. ((Count/Count))
system.cpu.dcache.tags.warmupTick              148000                       # The tick when the warmup percentage was hit. (Tick)
system.cpu.dcache.tags.occupancies::cpu.data   511.783355                       # Average occupied blocks per tick, per requestor ((Count/Tick))
system.cpu.dcache.tags.avgOccs::cpu.data     0.999577                       # Average percentage of cache occupancy ((Ratio/Tick))
system.cpu.dcache.tags.avgOccs::total        0.999577                       # Average percentage of cache occupancy ((Ratio/Tick))
system.cpu.dcache.tags.occupanciesTaskId::1024          512                       # Occupied blocks per task id (Count)
system.cpu.dcache.tags.ageTaskId_1024::0          142                       # Occupied blocks per task id, per block age (Count)
system.cpu.dcache.tags.ageTaskId_1024::1          369                       # Occupied blocks per task id, per block age (Count)
system.cpu.dcache.tags.ageTaskId_1024::4            1                       # Occupied blocks per task id, per block age (Count)
system.cpu.dcache.tags.ratioOccsTaskId::1024            1                       # Ratio of occupied blocks and all blocks, per task id (Ratio)
system.cpu.dcache.tags.tagAccesses           69099920                       # Number of tag accesses (Count)
system.cpu.dcache.tags.dataAccesses          69099920                       # Number of data accesses (Count)
system.cpu.dcache.tags.power_state.pwrStateResidencyTicks::UNDEFINED  63079732000                       # Cumulative time (in ticks) in various power states (Tick)
system.cpu.decode.idleCycles                   547547                       # Number of cycles decode is idle (Cycle)
system.cpu.decode.blockedCycles             123541714                       # Number of cycles decode is blocked (Cycle)
system.cpu.decode.runCycles                    789193                       # Number of cycles decode is running (Cycle)
system.cpu.decode.unblockCycles               1211355                       # Number of cycles decode is unblocking (Cycle)
system.cpu.decode.squashCycles                  19863                       # Number of cycles decode is squashing (Cycle)
system.cpu.decode.branchResolved               418622                       # Number of times decode resolved a branch (Count)
system.cpu.decode.branchMispred                   505                       # Number of times decode detected a branch misprediction (Count)
system.cpu.decode.decodedInsts               15746562                       # Number of instructions handled by decode (Count)
system.cpu.decode.squashedInsts                  2386                       # Number of squashed instructions handled by decode (Count)
system.cpu.dtb_walker_cache.blockedCycles::no_mshrs            0                       # number of cycles access was blocked (Cycle)
system.cpu.dtb_walker_cache.blockedCycles::no_targets            0                       # number of cycles access was blocked (Cycle)
system.cpu.dtb_walker_cache.blockedCauses::no_mshrs            0                       # number of times access was blocked (Count)
system.cpu.dtb_walker_cache.blockedCauses::no_targets            0                       # number of times access was blocked (Count)
system.cpu.dtb_walker_cache.avgBlocked::no_mshrs          nan                       # average number of cycles each access was blocked ((Cycle/Count))
system.cpu.dtb_walker_cache.avgBlocked::no_targets          nan                       # average number of cycles each access was blocked ((Cycle/Count))
system.cpu.dtb_walker_cache.replacements            0                       # number of replacements (Count)
system.cpu.dtb_walker_cache.power_state.pwrStateResidencyTicks::UNDEFINED  63079732000                       # Cumulative time (in ticks) in various power states (Tick)
system.cpu.dtb_walker_cache.tags.tagsInUse            0                       # Average ticks per tags in use ((Tick/Count))
system.cpu.dtb_walker_cache.tags.totalRefs            0                       # Total number of references to valid blocks. (Count)
system.cpu.dtb_walker_cache.tags.sampledRefs            0                       # Sample count of references to valid blocks. (Count)
system.cpu.dtb_walker_cache.tags.avgRefs          nan                       # Average number of references to valid blocks. ((Count/Count))
system.cpu.dtb_walker_cache.tags.warmupTick            0                       # The tick when the warmup percentage was hit. (Tick)
system.cpu.dtb_walker_cache.tags.tagAccesses            0                       # Number of tag accesses (Count)
system.cpu.dtb_walker_cache.tags.dataAccesses            0                       # Number of data accesses (Count)
system.cpu.dtb_walker_cache.tags.power_state.pwrStateResidencyTicks::UNDEFINED  63079732000                       # Cumulative time (in ticks) in various power states (Tick)
system.cpu.fetch.icacheStallCycles            1704853                       # Number of cycles fetch is stalled on an Icache miss (Cycle)
system.cpu.fetch.insts                       11321212                       # Number of instructions fetch has processed (Count)
system.cpu.fetch.branches                      486240                       # Number of branches that fetch encountered (Count)
system.cpu.fetch.predictedBranches             447332                       # Number of branches that fetch has predicted taken (Count)
system.cpu.fetch.cycles                     124381162                       # Number of cycles fetch has run and was not squashing or blocked (Cycle)
system.cpu.fetch.squashCycles                   40702                       # Number of cycles fetch has spent squashing (Cycle)
system.cpu.fetch.miscStallCycles                  429                       # Number of cycles fetch has spent waiting on interrupts, or bad addresses, or out of MSHRs (Cycle)
system.cpu.fetch.pendingTrapStallCycles          2877                       # Number of stall cycles due to pending traps (Cycle)
system.cpu.fetch.cacheLines                   1669239                       # Number of cache lines fetched (Count)
system.cpu.fetch.icacheSquashes                  1642                       # Number of outstanding Icache misses that were squashed (Count)
system.cpu.fetch.nisnDist::samples          126109672                       # Number of instructions fetched each cycle (Total) (Count)
system.cpu.fetch.nisnDist::mean              0.130374                       # Number of instructions fetched each cycle (Total) (Count)
system.cpu.fetch.nisnDist::stdev             0.920449                       # Number of instructions fetched each cycle (Total) (Count)
system.cpu.fetch.nisnDist::underflows               0      0.00%      0.00% # Number of instructions fetched each cycle (Total) (Count)
system.cpu.fetch.nisnDist::0                122969211     97.51%     97.51% # Number of instructions fetched each cycle (Total) (Count)
system.cpu.fetch.nisnDist::1                   306083      0.24%     97.75% # Number of instructions fetched each cycle (Total) (Count)
system.cpu.fetch.nisnDist::2                   546849      0.43%     98.19% # Number of instructions fetched each cycle (Total) (Count)
system.cpu.fetch.nisnDist::3                   181365      0.14%     98.33% # Number of instructions fetched each cycle (Total) (Count)
system.cpu.fetch.nisnDist::4                   314640      0.25%     98.58% # Number of instructions fetched each cycle (Total) (Count)
system.cpu.fetch.nisnDist::5                   203860      0.16%     98.74% # Number of instructions fetched each cycle (Total) (Count)
system.cpu.fetch.nisnDist::6                   172445      0.14%     98.88% # Number of instructions fetched each cycle (Total) (Count)
system.cpu.fetch.nisnDist::7                   136765      0.11%     98.99% # Number of instructions fetched each cycle (Total) (Count)
system.cpu.fetch.nisnDist::8                  1278454      1.01%    100.00% # Number of instructions fetched each cycle (Total) (Count)
system.cpu.fetch.nisnDist::overflows                0      0.00%    100.00% # Number of instructions fetched each cycle (Total) (Count)
system.cpu.fetch.nisnDist::min_value                0                       # Number of instructions fetched each cycle (Total) (Count)
system.cpu.fetch.nisnDist::max_value                8                       # Number of instructions fetched each cycle (Total) (Count)
system.cpu.fetch.nisnDist::total            126109672                       # Number of instructions fetched each cycle (Total) (Count)
system.cpu.fetch.branchRate                  0.003854                       # Number of branch fetches per cycle (Ratio)
system.cpu.fetch.rate                        0.089737                       # Number of inst fetches per cycle ((Count/Cycle))
system.cpu.icache.demandHits::cpu.inst        1667990                       # number of demand (read+write) hits (Count)
system.cpu.icache.demandHits::total           1667990                       # number of demand (read+write) hits (Count)
system.cpu.icache.overallHits::cpu.inst       1667990                       # number of overall hits (Count)
system.cpu.icache.overallHits::total          1667990                       # number of overall hits (Count)
system.cpu.icache.demandMisses::cpu.inst         1249                       # number of demand (read+write) misses (Count)
system.cpu.icache.demandMisses::total            1249                       # number of demand (read+write) misses (Count)
system.cpu.icache.overallMisses::cpu.inst         1249                       # number of overall misses (Count)
system.cpu.icache.overallMisses::total           1249                       # number of overall misses (Count)
system.cpu.icache.demandMissLatency::cpu.inst     70022000                       # number of demand (read+write) miss ticks (Tick)
system.cpu.icache.demandMissLatency::total     70022000                       # number of demand (read+write) miss ticks (Tick)
system.cpu.icache.overallMissLatency::cpu.inst     70022000                       # number of overall miss ticks (Tick)
system.cpu.icache.overallMissLatency::total     70022000                       # number of overall miss ticks (Tick)
system.cpu.icache.demandAccesses::cpu.inst      1669239                       # number of demand (read+write) accesses (Count)
system.cpu.icache.demandAccesses::total       1669239                       # number of demand (read+write) accesses (Count)
system.cpu.icache.overallAccesses::cpu.inst      1669239                       # number of overall (read+write) accesses (Count)
system.cpu.icache.overallAccesses::total      1669239                       # number of overall (read+write) accesses (Count)
system.cpu.icache.demandMissRate::cpu.inst     0.000748                       # miss rate for demand accesses (Ratio)
system.cpu.icache.demandMissRate::total      0.000748                       # miss rate for demand accesses (Ratio)
system.cpu.icache.overallMissRate::cpu.inst     0.000748                       # miss rate for overall accesses (Ratio)
system.cpu.icache.overallMissRate::total     0.000748                       # miss rate for overall accesses (Ratio)
system.cpu.icache.demandAvgMissLatency::cpu.inst 56062.449960                       # average overall miss latency in ticks ((Tick/Count))
system.cpu.icache.demandAvgMissLatency::total 56062.449960                       # average overall miss latency in ticks ((Tick/Count))
system.cpu.icache.overallAvgMissLatency::cpu.inst 56062.449960                       # average overall miss latency ((Tick/Count))
system.cpu.icache.overallAvgMissLatency::total 56062.449960                       # average overall miss latency ((Tick/Count))
system.cpu.icache.blockedCycles::no_mshrs           83                       # number of cycles access was blocked (Cycle)
system.cpu.icache.blockedCycles::no_targets            0                       # number of cycles access was blocked (Cycle)
system.cpu.icache.blockedCauses::no_mshrs            1                       # number of times access was blocked (Count)
system.cpu.icache.blockedCauses::no_targets            0                       # number of times access was blocked (Count)
system.cpu.icache.avgBlocked::no_mshrs             83                       # average number of cycles each access was blocked ((Cycle/Count))
system.cpu.icache.avgBlocked::no_targets          nan                       # average number of cycles each access was blocked ((Cycle/Count))
system.cpu.icache.writebacks::writebacks          390                       # number of writebacks (Count)
system.cpu.icache.writebacks::total               390                       # number of writebacks (Count)
system.cpu.icache.demandMshrHits::cpu.inst          347                       # number of demand (read+write) MSHR hits (Count)
system.cpu.icache.demandMshrHits::total           347                       # number of demand (read+write) MSHR hits (Count)
system.cpu.icache.overallMshrHits::cpu.inst          347                       # number of overall MSHR hits (Count)
system.cpu.icache.overallMshrHits::total          347                       # number of overall MSHR hits (Count)
system.cpu.icache.demandMshrMisses::cpu.inst          902                       # number of demand (read+write) MSHR misses (Count)
system.cpu.icache.demandMshrMisses::total          902                       # number of demand (read+write) MSHR misses (Count)
system.cpu.icache.overallMshrMisses::cpu.inst          902                       # number of overall MSHR misses (Count)
system.cpu.icache.overallMshrMisses::total          902                       # number of overall MSHR misses (Count)
system.cpu.icache.demandMshrMissLatency::cpu.inst     54564000                       # number of demand (read+write) MSHR miss ticks (Tick)
system.cpu.icache.demandMshrMissLatency::total     54564000                       # number of demand (read+write) MSHR miss ticks (Tick)
system.cpu.icache.overallMshrMissLatency::cpu.inst     54564000                       # number of overall MSHR miss ticks (Tick)
system.cpu.icache.overallMshrMissLatency::total     54564000                       # number of overall MSHR miss ticks (Tick)
system.cpu.icache.demandMshrMissRate::cpu.inst     0.000540                       # mshr miss ratio for demand accesses (Ratio)
system.cpu.icache.demandMshrMissRate::total     0.000540                       # mshr miss ratio for demand accesses (Ratio)
system.cpu.icache.overallMshrMissRate::cpu.inst     0.000540                       # mshr miss ratio for overall accesses (Ratio)
system.cpu.icache.overallMshrMissRate::total     0.000540                       # mshr miss ratio for overall accesses (Ratio)
system.cpu.icache.demandAvgMshrMissLatency::cpu.inst 60492.239468                       # average overall mshr miss latency ((Tick/Count))
system.cpu.icache.demandAvgMshrMissLatency::total 60492.239468                       # average overall mshr miss latency ((Tick/Count))
system.cpu.icache.overallAvgMshrMissLatency::cpu.inst 60492.239468                       # average overall mshr miss latency ((Tick/Count))
system.cpu.icache.overallAvgMshrMissLatency::total 60492.239468                       # average overall mshr miss latency ((Tick/Count))
system.cpu.icache.replacements                    390                       # number of replacements (Count)
system.cpu.icache.ReadReq.hits::cpu.inst      1667990                       # number of ReadReq hits (Count)
system.cpu.icache.ReadReq.hits::total         1667990                       # number of ReadReq hits (Count)
system.cpu.icache.ReadReq.misses::cpu.inst         1249                       # number of ReadReq misses (Count)
system.cpu.icache.ReadReq.misses::total          1249                       # number of ReadReq misses (Count)
system.cpu.icache.ReadReq.missLatency::cpu.inst     70022000                       # number of ReadReq miss ticks (Tick)
system.cpu.icache.ReadReq.missLatency::total     70022000                       # number of ReadReq miss ticks (Tick)
system.cpu.icache.ReadReq.accesses::cpu.inst      1669239                       # number of ReadReq accesses(hits+misses) (Count)
system.cpu.icache.ReadReq.accesses::total      1669239                       # number of ReadReq accesses(hits+misses) (Count)
system.cpu.icache.ReadReq.missRate::cpu.inst     0.000748                       # miss rate for ReadReq accesses (Ratio)
system.cpu.icache.ReadReq.missRate::total     0.000748                       # miss rate for ReadReq accesses (Ratio)
system.cpu.icache.ReadReq.avgMissLatency::cpu.inst 56062.449960                       # average ReadReq miss latency ((Tick/Count))
system.cpu.icache.ReadReq.avgMissLatency::total 56062.449960                       # average ReadReq miss latency ((Tick/Count))
system.cpu.icache.ReadReq.mshrHits::cpu.inst          347                       # number of ReadReq MSHR hits (Count)
system.cpu.icache.ReadReq.mshrHits::total          347                       # number of ReadReq MSHR hits (Count)
system.cpu.icache.ReadReq.mshrMisses::cpu.inst          902                       # number of ReadReq MSHR misses (Count)
system.cpu.icache.ReadReq.mshrMisses::total          902                       # number of ReadReq MSHR misses (Count)
system.cpu.icache.ReadReq.mshrMissLatency::cpu.inst     54564000                       # number of ReadReq MSHR miss ticks (Tick)
system.cpu.icache.ReadReq.mshrMissLatency::total     54564000                       # number of ReadReq MSHR miss ticks (Tick)
system.cpu.icache.ReadReq.mshrMissRate::cpu.inst     0.000540                       # mshr miss rate for ReadReq accesses (Ratio)
system.cpu.icache.ReadReq.mshrMissRate::total     0.000540                       # mshr miss rate for ReadReq accesses (Ratio)
system.cpu.icache.ReadReq.avgMshrMissLatency::cpu.inst 60492.239468                       # average ReadReq mshr miss latency ((Tick/Count))
system.cpu.icache.ReadReq.avgMshrMissLatency::total 60492.239468                       # average ReadReq mshr miss latency ((Tick/Count))
system.cpu.icache.power_state.pwrStateResidencyTicks::UNDEFINED  63079732000                       # Cumulative time (in ticks) in various power states (Tick)
system.cpu.icache.tags.tagsInUse           511.832796                       # Average ticks per tags in use ((Tick/Count))
system.cpu.icache.tags.totalRefs              1668892                       # Total number of references to valid blocks. (Count)
system.cpu.icache.tags.sampledRefs                902                       # Sample count of references to valid blocks. (Count)
system.cpu.icache.tags.avgRefs            1850.212860                       # Average number of references to valid blocks. ((Count/Count))
system.cpu.icache.tags.warmupTick               77000                       # The tick when the warmup percentage was hit. (Tick)
system.cpu.icache.tags.occupancies::cpu.inst   511.832796                       # Average occupied blocks per tick, per requestor ((Count/Tick))
system.cpu.icache.tags.avgOccs::cpu.inst     0.999673                       # Average percentage of cache occupancy ((Ratio/Tick))
system.cpu.icache.tags.avgOccs::total        0.999673                       # Average percentage of cache occupancy ((Ratio/Tick))
system.cpu.icache.tags.occupanciesTaskId::1024          512                       # Occupied blocks per task id (Count)
system.cpu.icache.tags.ageTaskId_1024::4          512                       # Occupied blocks per task id, per block age (Count)
system.cpu.icache.tags.ratioOccsTaskId::1024            1                       # Ratio of occupied blocks and all blocks, per task id (Ratio)
system.cpu.icache.tags.tagAccesses           13354814                       # Number of tag accesses (Count)
system.cpu.icache.tags.dataAccesses          13354814                       # Number of data accesses (Count)
system.cpu.icache.tags.power_state.pwrStateResidencyTicks::UNDEFINED  63079732000                       # Cumulative time (in ticks) in various power states (Tick)
system.cpu.iew.reusedInsts                      45581                       # Number of instructions reused (Cycle)
system.cpu.iew.reusedFloatInsts                    11                       # Number of float instructions reused (Cycle)
system.cpu.iew.reusedIntInsts                   45570                       # Number of int instructions reused (Cycle)
system.cpu.iew.reusedVecInsts                       0                       # Number of vector instructions reused (Cycle)
system.cpu.iew.idleCycles                           0                       # Number of cycles IEW is idle (Cycle)
system.cpu.iew.squashCycles                     19863                       # Number of cycles IEW is squashing (Cycle)
system.cpu.iew.blockCycles                     189578                       # Number of cycles IEW is blocking (Cycle)
system.cpu.iew.unblockCycles                 51157997                       # Number of cycles IEW is unblocking (Cycle)
system.cpu.iew.dispatchedInsts               15608192                       # Number of instructions dispatched to IQ (Count)
system.cpu.iew.dispSquashedInsts                  396                       # Number of squashed instructions skipped by dispatch (Count)
system.cpu.iew.dispLoadInsts                  1244852                       # Number of dispatched load instructions (Count)
system.cpu.iew.dispStoreInsts                 7757747                       # Number of dispatched store instructions (Count)
system.cpu.iew.dispNonSpecInsts                    56                       # Number of dispatched non-speculative instructions (Count)
system.cpu.iew.iqFullEvents                       601                       # Number of times the IQ has become full, causing a stall (Count)
system.cpu.iew.lsqFullEvents                 51156918                       # Number of times the LSQ has become full, causing a stall (Count)
system.cpu.iew.memOrderViolationEvents             88                       # Number of memory order violations (Count)
system.cpu.iew.predictedTakenIncorrect           2330                       # Number of branches that were predicted taken incorrectly (Count)
system.cpu.iew.predictedNotTakenIncorrect         3863                       # Number of branches that were predicted not taken incorrectly (Count)
system.cpu.iew.branchMispredicts                 6193                       # Number of branch mispredicts detected at execute (Count)
system.cpu.iew.instsToCommit                 15508661                       # Cumulative count of insts sent to commit (Count)
system.cpu.iew.writebackCount                15221079                       # Cumulative count of insts written-back (Count)
system.cpu.iew.producerInst                   5011434                       # Number of instructions producing a value (Count)
system.cpu.iew.consumerInst                   6058235                       # Number of instructions consuming a value (Count)
system.cpu.iew.wbRate                        0.120650                       # Insts written-back per cycle ((Count/Cycle))
system.cpu.iew.wbFanout                      0.827210                       # Average fanout of values written-back ((Count/Count))
system.cpu.interrupts.clk_domain.clock           8000                       # Clock period in ticks (Tick)
system.cpu.itb_walker_cache.blockedCycles::no_mshrs            0                       # number of cycles access was blocked (Cycle)
system.cpu.itb_walker_cache.blockedCycles::no_targets            0                       # number of cycles access was blocked (Cycle)
system.cpu.itb_walker_cache.blockedCauses::no_mshrs            0                       # number of times access was blocked (Count)
system.cpu.itb_walker_cache.blockedCauses::no_targets            0                       # number of times access was blocked (Count)
system.cpu.itb_walker_cache.avgBlocked::no_mshrs          nan                       # average number of cycles each access was blocked ((Cycle/Count))
system.cpu.itb_walker_cache.avgBlocked::no_targets          nan                       # average number of cycles each access was blocked ((Cycle/Count))
system.cpu.itb_walker_cache.replacements            0                       # number of replacements (Count)
system.cpu.itb_walker_cache.power_state.pwrStateResidencyTicks::UNDEFINED  63079732000                       # Cumulative time (in ticks) in various power states (Tick)
system.cpu.itb_walker_cache.tags.tagsInUse            0                       # Average ticks per tags in use ((Tick/Count))
system.cpu.itb_walker_cache.tags.totalRefs            0                       # Total number of references to valid blocks. (Count)
system.cpu.itb_walker_cache.tags.sampledRefs            0                       # Sample count of references to valid blocks. (Count)
system.cpu.itb_walker_cache.tags.avgRefs          nan                       # Average number of references to valid blocks. ((Count/Count))
system.cpu.itb_walker_cache.tags.warmupTick            0                       # The tick when the warmup percentage was hit. (Tick)
system.cpu.itb_walker_cache.tags.tagAccesses            0                       # Number of tag accesses (Count)
system.cpu.itb_walker_cache.tags.dataAccesses            0                       # Number of data accesses (Count)
system.cpu.itb_walker_cache.tags.power_state.pwrStateResidencyTicks::UNDEFINED  63079732000                       # Cumulative time (in ticks) in various power states (Tick)
system.cpu.lsq0.forwLoads                        4336                       # Number of loads that had data forwarded from stores (Count)
system.cpu.lsq0.squashedLoads                  107062                       # Number of loads squashed (Count)
system.cpu.lsq0.ignoredResponses                   49                       # Number of memory responses ignored because the instruction is squashed (Count)
system.cpu.lsq0.memOrderViolation                  88                       # Number of memory ordering violations (Count)
system.cpu.lsq0.squashedStores                 462681                       # Number of stores squashed (Count)
system.cpu.lsq0.rescheduledLoads                    1                       # Number of loads that were rescheduled (Count)
system.cpu.lsq0.blockedByCache                    306                       # Number of times an access to memory failed due to the cache being blocked (Count)
system.cpu.lsq0.loadToUse::samples            1137790                       # Distribution of cycle latency between the first time a load is issued and its completion (Unspecified)
system.cpu.lsq0.loadToUse::mean              3.704015                       # Distribution of cycle latency between the first time a load is issued and its completion (Unspecified)
system.cpu.lsq0.loadToUse::stdev             9.994203                       # Distribution of cycle latency between the first time a load is issued and its completion (Unspecified)
system.cpu.lsq0.loadToUse::0-9                1130996     99.40%     99.40% # Distribution of cycle latency between the first time a load is issued and its completion (Unspecified)
system.cpu.lsq0.loadToUse::10-19                  325      0.03%     99.43% # Distribution of cycle latency between the first time a load is issued and its completion (Unspecified)
system.cpu.lsq0.loadToUse::20-29                  175      0.02%     99.45% # Distribution of cycle latency between the first time a load is issued and its completion (Unspecified)
system.cpu.lsq0.loadToUse::30-39                  190      0.02%     99.46% # Distribution of cycle latency between the first time a load is issued and its completion (Unspecified)
system.cpu.lsq0.loadToUse::40-49                  105      0.01%     99.47% # Distribution of cycle latency between the first time a load is issued and its completion (Unspecified)
system.cpu.lsq0.loadToUse::50-59                  167      0.01%     99.49% # Distribution of cycle latency between the first time a load is issued and its completion (Unspecified)
system.cpu.lsq0.loadToUse::60-69                  241      0.02%     99.51% # Distribution of cycle latency between the first time a load is issued and its completion (Unspecified)
system.cpu.lsq0.loadToUse::70-79                  159      0.01%     99.52% # Distribution of cycle latency between the first time a load is issued and its completion (Unspecified)
[...]
system.mem_ctrls.dram.bwWrite::total        923221170                       # Write bandwidth from this memory ((Byte/Second))
system.mem_ctrls.dram.bwTotal::writebacks    923221170                       # Total bandwidth to/from this memory ((Byte/Second))
system.mem_ctrls.dram.bwTotal::cpu.inst        915159                       # Total bandwidth to/from this memory ((Byte/Second))
system.mem_ctrls.dram.bwTotal::cpu.data     926206091                       # Total bandwidth to/from this memory ((Byte/Second))
system.mem_ctrls.dram.bwTotal::total       1850342421                       # Total bandwidth to/from this memory ((Byte/Second))
system.mem_ctrls.dram.readBursts               913784                       # Number of DRAM read bursts (Count)
system.mem_ctrls.dram.writeBursts              910308                       # Number of DRAM write bursts (Count)
system.mem_ctrls.dram.perBankRdBursts::0        56977                       # Per bank write bursts (Count)
system.mem_ctrls.dram.perBankRdBursts::1        57159                       # Per bank write bursts (Count)
system.mem_ctrls.dram.perBankRdBursts::2        57285                       # Per bank write bursts (Count)
system.mem_ctrls.dram.perBankRdBursts::3        57205                       # Per bank write bursts (Count)
system.mem_ctrls.dram.perBankRdBursts::4        57310                       # Per bank write bursts (Count)
system.mem_ctrls.dram.perBankRdBursts::5        57272                       # Per bank write bursts (Count)
system.mem_ctrls.dram.perBankRdBursts::6        57159                       # Per bank write bursts (Count)
system.mem_ctrls.dram.perBankRdBursts::7        57112                       # Per bank write bursts (Count)
system.mem_ctrls.dram.perBankRdBursts::8        57031                       # Per bank write bursts (Count)
system.mem_ctrls.dram.perBankRdBursts::9        57040                       # Per bank write bursts (Count)
system.mem_ctrls.dram.perBankRdBursts::10        57024                       # Per bank write bursts (Count)
system.mem_ctrls.dram.perBankRdBursts::11        57006                       # Per bank write bursts (Count)
system.mem_ctrls.dram.perBankRdBursts::12        57059                       # Per bank write bursts (Count)
system.mem_ctrls.dram.perBankRdBursts::13        56993                       # Per bank write bursts (Count)
system.mem_ctrls.dram.perBankRdBursts::14        57083                       # Per bank write bursts (Count)
system.mem_ctrls.dram.perBankRdBursts::15        57069                       # Per bank write bursts (Count)
system.mem_ctrls.dram.perBankWrBursts::0        56853                       # Per bank write bursts (Count)
system.mem_ctrls.dram.perBankWrBursts::1        56854                       # Per bank write bursts (Count)
system.mem_ctrls.dram.perBankWrBursts::2        56900                       # Per bank write bursts (Count)
system.mem_ctrls.dram.perBankWrBursts::3        56876                       # Per bank write bursts (Count)
system.mem_ctrls.dram.perBankWrBursts::4        56984                       # Per bank write bursts (Count)
system.mem_ctrls.dram.perBankWrBursts::5        57003                       # Per bank write bursts (Count)
system.mem_ctrls.dram.perBankWrBursts::6        56927                       # Per bank write bursts (Count)
system.mem_ctrls.dram.perBankWrBursts::7        56971                       # Per bank write bursts (Count)
system.mem_ctrls.dram.perBankWrBursts::8        56905                       # Per bank write bursts (Count)
system.mem_ctrls.dram.perBankWrBursts::9        56861                       # Per bank write bursts (Count)
system.mem_ctrls.dram.perBankWrBursts::10        56913                       # Per bank write bursts (Count)
system.mem_ctrls.dram.perBankWrBursts::11        56841                       # Per bank write bursts (Count)
system.mem_ctrls.dram.perBankWrBursts::12        56837                       # Per bank write bursts (Count)
system.mem_ctrls.dram.perBankWrBursts::13        56850                       # Per bank write bursts (Count)
system.mem_ctrls.dram.perBankWrBursts::14        56866                       # Per bank write bursts (Count)
system.mem_ctrls.dram.perBankWrBursts::15        56867                       # Per bank write bursts (Count)
system.mem_ctrls.dram.totQLat              9241482500                       # Total ticks spent queuing (Tick)
system.mem_ctrls.dram.totBusLat            4568920000                       # Total ticks spent in databus transfers (Tick)
system.mem_ctrls.dram.totMemAccLat        26374932500                       # Total ticks spent from burst creation until serviced by the DRAM (Tick)
system.mem_ctrls.dram.avgQLat                10113.42                       # Average queueing delay per DRAM burst ((Tick/Count))
system.mem_ctrls.dram.avgBusLat               5000.00                       # Average bus latency per DRAM burst ((Tick/Count))
system.mem_ctrls.dram.avgMemAccLat           28863.42                       # Average memory access latency per DRAM burst ((Tick/Count))
system.mem_ctrls.dram.readRowHits              849305                       # Number of row buffer hits during reads (Count)
system.mem_ctrls.dram.writeRowHits             846397                       # Number of row buffer hits during writes (Count)
system.mem_ctrls.dram.readRowHitRate            92.94                       # Row buffer hit rate for reads (Ratio)
system.mem_ctrls.dram.writeRowHitRate           92.98                       # Row buffer hit rate for writes (Ratio)
system.mem_ctrls.dram.bytesPerActivate::samples       128387                       # Bytes accessed per row activation (Byte)
system.mem_ctrls.dram.bytesPerActivate::mean   909.282342                       # Bytes accessed per row activation (Byte)
system.mem_ctrls.dram.bytesPerActivate::gmean   828.944108                       # Bytes accessed per row activation (Byte)
system.mem_ctrls.dram.bytesPerActivate::stdev   254.049880                       # Bytes accessed per row activation (Byte)
system.mem_ctrls.dram.bytesPerActivate::0-127         2683      2.09%      2.09% # Bytes accessed per row activation (Byte)
system.mem_ctrls.dram.bytesPerActivate::128-255         3418      2.66%      4.75% # Bytes accessed per row activation (Byte)
system.mem_ctrls.dram.bytesPerActivate::256-383         3954      3.08%      7.83% # Bytes accessed per row activation (Byte)
system.mem_ctrls.dram.bytesPerActivate::384-511         3813      2.97%     10.80% # Bytes accessed per row activation (Byte)
system.mem_ctrls.dram.bytesPerActivate::512-639         3823      2.98%     13.78% # Bytes accessed per row activation (Byte)
system.mem_ctrls.dram.bytesPerActivate::640-767         3074      2.39%     16.17% # Bytes accessed per row activation (Byte)
system.mem_ctrls.dram.bytesPerActivate::768-895         3469      2.70%     18.88% # Bytes accessed per row activation (Byte)
system.mem_ctrls.dram.bytesPerActivate::896-1023         3854      3.00%     21.88% # Bytes accessed per row activation (Byte)
system.mem_ctrls.dram.bytesPerActivate::1024-1151       100299     78.12%    100.00% # Bytes accessed per row activation (Byte)
system.mem_ctrls.dram.bytesPerActivate::total       128387                       # Bytes accessed per row activation (Byte)
system.mem_ctrls.dram.bytesRead              58482176                       # Total bytes read (Byte)
system.mem_ctrls.dram.bytesWritten           58259712                       # Total bytes written (Byte)
system.mem_ctrls.dram.avgRdBW              927.115163                       # Average DRAM read bandwidth in MiBytes/s ((Byte/Second))
system.mem_ctrls.dram.avgWrBW              923.588452                       # Average DRAM write bandwidth in MiBytes/s ((Byte/Second))
system.mem_ctrls.dram.peakBW                 12800.00                       # Theoretical peak bandwidth in MiByte/s ((Byte/Second))
system.mem_ctrls.dram.busUtil                   14.46                       # Data bus utilization in percentage (Ratio)
system.mem_ctrls.dram.busUtilRead                7.24                       # Data bus utilization in percentage for reads (Ratio)
system.mem_ctrls.dram.busUtilWrite               7.22                       # Data bus utilization in percentage for writes (Ratio)
system.mem_ctrls.dram.pageHitRate               92.96                       # Row buffer hit rate, read and write combined (Ratio)
system.mem_ctrls.dram.power_state.pwrStateResidencyTicks::UNDEFINED  63079732000                       # Cumulative time (in ticks) in various power states (Tick)
system.mem_ctrls.dram.rank0.actEnergy       459430440                       # Energy for activate commands per rank (pJ) (Joule)
system.mem_ctrls.dram.rank0.preEnergy       244181685                       # Energy for precharge commands per rank (pJ) (Joule)
system.mem_ctrls.dram.rank0.readEnergy     3266400060                       # Energy for read commands per rank (pJ) (Joule)
system.mem_ctrls.dram.rank0.writeEnergy    2377020960                       # Energy for write commands per rank (pJ) (Joule)
system.mem_ctrls.dram.rank0.refreshEnergy 4979198640.000001                       # Energy for refresh commands per rank (pJ) (Joule)
system.mem_ctrls.dram.rank0.actBackEnergy  19502242770                       # Energy for active background per rank (pJ) (Joule)
system.mem_ctrls.dram.rank0.preBackEnergy   7799676000                       # Energy for precharge background per rank (pJ) (Joule)
system.mem_ctrls.dram.rank0.actPowerDownEnergy            0                       # Energy for active power-down per rank (pJ) (Joule)
system.mem_ctrls.dram.rank0.prePowerDownEnergy            0                       # Energy for precharge power-down per rank (pJ) (Joule)
system.mem_ctrls.dram.rank0.selfRefreshEnergy            0                       # Energy for self refresh per rank (pJ) (Joule)
system.mem_ctrls.dram.rank0.totalEnergy   38628150555                       # Total energy per rank (pJ) (Joule)
system.mem_ctrls.dram.rank0.averagePower   612.370239                       # Core power per rank (mW) (Watt)
system.mem_ctrls.dram.rank0.totalIdleTime            0                       # Total Idle time Per DRAM Rank (Tick)
system.mem_ctrls.dram.rank0.pwrStateTime::IDLE  19832949500                       # Time in different power states (Tick)
system.mem_ctrls.dram.rank0.pwrStateTime::REF   2106260000                       # Time in different power states (Tick)
system.mem_ctrls.dram.rank0.pwrStateTime::SREF            0                       # Time in different power states (Tick)
system.mem_ctrls.dram.rank0.pwrStateTime::PRE_PDN            0                       # Time in different power states (Tick)
system.mem_ctrls.dram.rank0.pwrStateTime::ACT  41140522500                       # Time in different power states (Tick)
system.mem_ctrls.dram.rank0.pwrStateTime::ACT_PDN            0                       # Time in different power states (Tick)
system.mem_ctrls.dram.rank1.actEnergy       457274160                       # Energy for activate commands per rank (pJ) (Joule)
system.mem_ctrls.dram.rank1.preEnergy       243046980                       # Energy for precharge commands per rank (pJ) (Joule)
system.mem_ctrls.dram.rank1.readEnergy     3258017700                       # Energy for read commands per rank (pJ) (Joule)
system.mem_ctrls.dram.rank1.writeEnergy    2374786800                       # Energy for write commands per rank (pJ) (Joule)
system.mem_ctrls.dram.rank1.refreshEnergy 4979198640.000001                       # Energy for refresh commands per rank (pJ) (Joule)
system.mem_ctrls.dram.rank1.actBackEnergy  19500475200                       # Energy for active background per rank (pJ) (Joule)
system.mem_ctrls.dram.rank1.preBackEnergy   7801164480                       # Energy for precharge background per rank (pJ) (Joule)
system.mem_ctrls.dram.rank1.actPowerDownEnergy            0                       # Energy for active power-down per rank (pJ) (Joule)
system.mem_ctrls.dram.rank1.prePowerDownEnergy            0                       # Energy for precharge power-down per rank (pJ) (Joule)
system.mem_ctrls.dram.rank1.selfRefreshEnergy            0                       # Energy for self refresh per rank (pJ) (Joule)
system.mem_ctrls.dram.rank1.totalEnergy   38613963960                       # Total energy per rank (pJ) (Joule)
system.mem_ctrls.dram.rank1.averagePower   612.145339                       # Core power per rank (mW) (Watt)
system.mem_ctrls.dram.rank1.totalIdleTime            0                       # Total Idle time Per DRAM Rank (Tick)
system.mem_ctrls.dram.rank1.pwrStateTime::IDLE  19837690000                       # Time in different power states (Tick)
system.mem_ctrls.dram.rank1.pwrStateTime::REF   2106260000                       # Time in different power states (Tick)
system.mem_ctrls.dram.rank1.pwrStateTime::SREF            0                       # Time in different power states (Tick)
system.mem_ctrls.dram.rank1.pwrStateTime::PRE_PDN            0                       # Time in different power states (Tick)
system.mem_ctrls.dram.rank1.pwrStateTime::ACT  41135782000                       # Time in different power states (Tick)
system.mem_ctrls.dram.rank1.pwrStateTime::ACT_PDN            0                       # Time in different power states (Tick)
system.mem_ctrls.power_state.pwrStateResidencyTicks::UNDEFINED  63079732000                       # Cumulative time (in ticks) in various power states (Tick)
system.membus.transDist::ReadResp                3450                       # Transaction distribution (Count)
system.membus.transDist::WritebackDirty        909946                       # Transaction distribution (Count)
system.membus.transDist::WritebackClean           390                       # Transaction distribution (Count)
system.membus.transDist::CleanEvict              2430                       # Transaction distribution (Count)
system.membus.transDist::ReadExReq             910340                       # Transaction distribution (Count)
system.membus.transDist::ReadExResp            910340                       # Transaction distribution (Count)
system.membus.transDist::ReadCleanReq             902                       # Transaction distribution (Count)
system.membus.transDist::ReadSharedReq           2548                       # Transaction distribution (Count)
system.membus.pktCount_system.cpu.icache.mem_side_port::system.mem_ctrls.port         2194                       # Packet count per connected requestor and responder (Count)
system.membus.pktCount_system.cpu.icache.mem_side_port::total         2194                       # Packet count per connected requestor and responder (Count)
system.membus.pktCount_system.cpu.dcache.mem_side_port::system.mem_ctrls.port      2738152                       # Packet count per connected requestor and responder (Count)
system.membus.pktCount_system.cpu.dcache.mem_side_port::total      2738152                       # Packet count per connected requestor and responder (Count)
system.membus.pktCount::total                 2740346                       # Packet count per connected requestor and responder (Count)
system.membus.pktSize_system.cpu.icache.mem_side_port::system.mem_ctrls.port        82688                       # Cumulative packet size per connected requestor and responder (Byte)
system.membus.pktSize_system.cpu.icache.mem_side_port::total        82688                       # Cumulative packet size per connected requestor and responder (Byte)
system.membus.pktSize_system.cpu.dcache.mem_side_port::system.mem_ctrls.port    116661376                       # Cumulative packet size per connected requestor and responder (Byte)
system.membus.pktSize_system.cpu.dcache.mem_side_port::total    116661376                       # Cumulative packet size per connected requestor and responder (Byte)
system.membus.pktSize::total                116744064                       # Cumulative packet size per connected requestor and responder (Byte)
system.membus.snoops                                0                       # Total snoops (Count)
system.membus.snoopTraffic                          0                       # Total snoop traffic (Byte)
system.membus.snoopFanout::samples             913790                       # Request fanout histogram (Count)
system.membus.snoopFanout::mean              0.000007                       # Request fanout histogram (Count)
system.membus.snoopFanout::stdev             0.002562                       # Request fanout histogram (Count)
system.membus.snoopFanout::underflows               0      0.00%      0.00% # Request fanout histogram (Count)
system.membus.snoopFanout::0                   913784    100.00%    100.00% # Request fanout histogram (Count)
system.membus.snoopFanout::1                        6      0.00%    100.00% # Request fanout histogram (Count)
system.membus.snoopFanout::2                        0      0.00%    100.00% # Request fanout histogram (Count)
system.membus.snoopFanout::3                        0      0.00%    100.00% # Request fanout histogram (Count)
system.membus.snoopFanout::4                        0      0.00%    100.00% # Request fanout histogram (Count)
system.membus.snoopFanout::overflows                0      0.00%    100.00% # Request fanout histogram (Count)
system.membus.snoopFanout::min_value                0                       # Request fanout histogram (Count)
system.membus.snoopFanout::max_value                1                       # Request fanout histogram (Count)
system.membus.snoopFanout::total               913790                       # Request fanout histogram (Count)
system.membus.power_state.pwrStateResidencyTicks::UNDEFINED  63079732000                       # Cumulative time (in ticks) in various power states (Tick)
system.membus.reqLayer2.occupancy          5612194500                       # Layer occupancy (ticks) (Tick)
system.membus.reqLayer2.utilization               0.1                       # Layer utilization (Ratio)
system.membus.respLayer1.occupancy            4790750                       # Layer occupancy (ticks) (Tick)
system.membus.respLayer1.utilization              0.0                       # Layer utilization (Ratio)
system.membus.respLayer2.occupancy         4812585500                       # Layer occupancy (ticks) (Tick)
system.membus.respLayer2.utilization              0.1                       # Layer utilization (Ratio)
system.membus.snoop_filter.totRequests        1826556                       # Total number of requests made to the snoop filter. (Count)
system.membus.snoop_filter.hitSingleRequests       912766                       # Number of requests hitting in the snoop filter with a single holder of the requested data. (Count)
system.membus.snoop_filter.hitMultiRequests            6                       # Number of requests hitting in the snoop filter with multiple (>1) holders of the requested data. (Count)
system.membus.snoop_filter.totSnoops                0                       # Total number of snoops made to the snoop filter. (Count)
system.membus.snoop_filter.hitSingleSnoops            0                       # Number of snoops hitting in the snoop filter with a single holder of the requested data. (Count)
system.membus.snoop_filter.hitMultiSnoops            0                       # Number of snoops hitting in the snoop filter with multiple (>1) holders of the requested data. (Count)
system.voltage_domain.voltage                       1                       # Voltage in Volts (Volt)
system.workload.inst.arm                            0                       # number of arm instructions executed (Count)
system.workload.inst.quiesce                        0                       # number of quiesce instructions executed (Count)

---------- End Simulation Statistics   ----------
