
---------- Begin Simulation Statistics ----------
simSeconds                                   0.020482                       # Number of seconds simulated (Second)
simTicks                                  20482292000                       # Number of ticks simulated (Tick)
finalTick                                 20482292000                       # Number of ticks from beginning of simulation (restored from checkpoints and never reset) (Tick)
simFreq                                  1000000000000                       # The number of ticks per simulated second ((Tick/Second))
hostSeconds                                    217.90                       # Real time elapsed on the host (Second)
hostTickRate                                 93997972                       # The number of ticks simulated per host second (ticks/s) ((Tick/Second))
hostMemory                                    8746588                       # Number of bytes of host memory used (Byte)
simInsts                                     10000000                       # Number of instructions simulated (Count)
simOps                                       19896901                       # Number of ops (including micro ops) simulated (Count)
hostInstRate                                    45892                       # Simulator instruction rate (inst/s) ((Count/Second))
hostOpRate                                      91311                       # Simulator op (including micro ops) rate (op/s) ((Count/Second))
system.clk_domain.clock                          1000                       # Clock period in ticks (Tick)
system.cpu.numCycles                         40964585                       # Number of cpu cycles simulated (Cycle)
system.cpu.numWorkItemsStarted                      0                       # Number of work items this cpu started (Count)
system.cpu.numWorkItemsCompleted                    0                       # Number of work items this cpu completed (Count)
system.cpu.instsAdded                        21512021                       # Number of instructions added to the IQ (excludes non-spec) (Count)
system.cpu.nonSpecInstsAdded                      422                       # Number of non-speculative instructions added to the IQ (Count)
system.cpu.instsIssued                       21311671                       # Number of instructions issued (Count)
system.cpu.squashedInstsIssued                   1532                       # Number of squashed instructions issued (Count)
system.cpu.squashedInstsExamined              1615542                       # Number of squashed instructions iterated over during squash; mainly for profiling (Count)
system.cpu.squashedOperandsExamined           1740236                       # Number of squashed operands that are examined and possibly removed from graph (Count)
system.cpu.squashedNonSpecRemoved                 148                       # Number of squashed non-spec instructions that were removed (Count)
system.cpu.numIssuedDist::samples            40871421                       # Number of insts issued each cycle (Count)
system.cpu.numIssuedDist::mean               0.521432                       # Number of insts issued each cycle (Count)
system.cpu.numIssuedDist::stdev              1.428869                       # Number of insts issued each cycle (Count)
system.cpu.numIssuedDist::underflows                0      0.00%      0.00% # Number of insts issued each cycle (Count)
system.cpu.numIssuedDist::0                  34586340     84.62%     84.62% # Number of insts issued each cycle (Count)
system.cpu.numIssuedDist::1                   1141687      2.79%     87.42% # Number of insts issued each cycle (Count)
system.cpu.numIssuedDist::2                   1256717      3.07%     90.49% # Number of insts issued each cycle (Count)
system.cpu.numIssuedDist::3                   1365806      3.34%     93.83% # Number of insts issued each cycle (Count)
system.cpu.numIssuedDist::4                    646224      1.58%     95.41% # Number of insts issued each cycle (Count)
system.cpu.numIssuedDist::5                    904156      2.21%     97.63% # Number of insts issued each cycle (Count)
system.cpu.numIssuedDist::6                    349863      0.86%     98.48% # Number of insts issued each cycle (Count)
system.cpu.numIssuedDist::7                    610746      1.49%     99.98% # Number of insts issued each cycle (Count)
system.cpu.numIssuedDist::8                      9882      0.02%    100.00% # Number of insts issued each cycle (Count)
system.cpu.numIssuedDist::overflows                 0      0.00%    100.00% # Number of insts issued each cycle (Count)
system.cpu.numIssuedDist::min_value                 0                       # Number of insts issued each cycle (Count)
system.cpu.numIssuedDist::max_value                 8                       # Number of insts issued each cycle (Count)
system.cpu.numIssuedDist::total              40871421                       # Number of insts issued each cycle (Count)
system.cpu.statFuBusy::No_OpClass                   0      0.00%      0.00% # attempts to use FU when none available (Count)
system.cpu.statFuBusy::IntAlu                   24409     85.64%     85.64% # attempts to use FU when none available (Count)
system.cpu.statFuBusy::IntMult                      0      0.00%     85.64% # attempts to use FU when none available (Count)
system.cpu.statFuBusy::IntDiv                       0      0.00%     85.64% # attempts to use FU when none available (Count)
system.cpu.statFuBusy::FloatAdd                     0      0.00%     85.64% # attempts to use FU when none available (Count)
system.cpu.statFuBusy::FloatCmp                     0      0.00%     85.64% # attempts to use FU when none available (Count)
system.cpu.statFuBusy::FloatCvt                     1      0.00%     85.65% # attempts to use FU when none available (Count)
system.cpu.statFuBusy::FloatMult                    0      0.00%     85.65% # attempts to use FU when none available (Count)
system.cpu.statFuBusy::FloatMultAcc                 0      0.00%     85.65% # attempts to use FU when none available (Count)
system.cpu.statFuBusy::FloatDiv                     0      0.00%     85.65% # attempts to use FU when none available (Count)
system.cpu.statFuBusy::FloatMisc                    0      0.00%     85.65% # attempts to use FU when none available (Count)
system.cpu.statFuBusy::FloatSqrt                    0      0.00%     85.65% # attempts to use FU when none available (Count)
system.cpu.statFuBusy::SimdAdd                      0      0.00%     85.65% # attempts to use FU when none available (Count)
system.cpu.statFuBusy::SimdAddAcc                   0      0.00%     85.65% # attempts to use FU when none available (Count)
system.cpu.statFuBusy::SimdAlu                     21      0.07%     85.72% # attempts to use FU when none available (Count)
system.cpu.statFuBusy::SimdCmp                      0      0.00%     85.72% # attempts to use FU when none available (Count)
system.cpu.statFuBusy::SimdCvt                      4      0.01%     85.73% # attempts to use FU when none available (Count)
system.cpu.statFuBusy::SimdMisc                     2      0.01%     85.74% # attempts to use FU when none available (Count)
system.cpu.statFuBusy::SimdMult                     0      0.00%     85.74% # attempts to use FU when none available (Count)
system.cpu.statFuBusy::SimdMultAcc                  0      0.00%     85.74% # attempts to use FU when none available (Count)
system.cpu.statFuBusy::SimdShift                    0      0.00%     85.74% # attempts to use FU when none available (Count)
system.cpu.statFuBusy::SimdShiftAcc                 0      0.00%     85.74% # attempts to use FU when none available (Count)
system.cpu.statFuBusy::SimdDiv                      0      0.00%     85.74% # attempts to use FU when none available (Count)
system.cpu.statFuBusy::SimdSqrt                     0      0.00%     85.74% # attempts to use FU when none available (Count)
system.cpu.statFuBusy::SimdFloatAdd                 0      0.00%     85.74% # attempts to use FU when none available (Count)
system.cpu.statFuBusy::SimdFloatAlu                 0      0.00%     85.74% # attempts to use FU when none available (Count)
system.cpu.statFuBusy::SimdFloatCmp                 0      0.00%     85.74% # attempts to use FU when none available (Count)
system.cpu.statFuBusy::SimdFloatCvt                 0      0.00%     85.74% # attempts to use FU when none available (Count)
system.cpu.statFuBusy::SimdFloatDiv                 0      0.00%     85.74% # attempts to use FU when none available (Count)
system.cpu.statFuBusy::SimdFloatMisc                0      0.00%     85.74% # attempts to use FU when none available (Count)
system.cpu.statFuBusy::SimdFloatMult                0      0.00%     85.74% # attempts to use FU when none available (Count)
system.cpu.statFuBusy::SimdFloatMultAcc             0      0.00%     85.74% # attempts to use FU when none available (Count)
system.cpu.statFuBusy::SimdFloatSqrt                0      0.00%     85.74% # attempts to use FU when none available (Count)
system.cpu.statFuBusy::SimdReduceAdd                0      0.00%     85.74% # attempts to use FU when none available (Count)
system.cpu.statFuBusy::SimdReduceAlu                0      0.00%     85.74% # attempts to use FU when none available (Count)
system.cpu.statFuBusy::SimdReduceCmp                0      0.00%     85.74% # attempts to use FU when none available (Count)
system.cpu.statFuBusy::SimdFloatReduceAdd            0      0.00%     85.74% # attempts to use FU when none available (Count)
system.cpu.statFuBusy::SimdFloatReduceCmp            0      0.00%     85.74% # attempts to use FU when none available (Count)
system.cpu.statFuBusy::SimdAes                      0      0.00%     85.74% # attempts to use FU when none available (Count)
system.cpu.statFuBusy::SimdAesMix                   0      0.00%     85.74% # attempts to use FU when none available (Count)
system.cpu.statFuBusy::SimdSha1Hash                 0      0.00%     85.74% # attempts to use FU when none available (Count)
system.cpu.statFuBusy::SimdSha1Hash2                0      0.00%     85.74% # attempts to use FU when none available (Count)
system.cpu.statFuBusy::SimdSha256Hash               0      0.00%     85.74% # attempts to use FU when none available (Count)
system.cpu.statFuBusy::SimdSha256Hash2              0      0.00%     85.74% # attempts to use FU when none available (Count)
system.cpu.statFuBusy::SimdShaSigma2                0      0.00%     85.74% # attempts to use FU when none available (Count)
system.cpu.statFuBusy::SimdShaSigma3                0      0.00%     85.74% # attempts to use FU when none available (Count)
system.cpu.statFuBusy::SimdPredAlu                  0      0.00%     85.74% # attempts to use FU when none available (Count)
system.cpu.statFuBusy::MemRead                   1996      7.00%     92.74% # attempts to use FU when none available (Count)
system.cpu.statFuBusy::MemWrite                  1588      5.57%     98.32% # attempts to use FU when none available (Count)
system.cpu.statFuBusy::FloatMemRead               121      0.42%     98.74% # attempts to use FU when none available (Count)
system.cpu.statFuBusy::FloatMemWrite              359      1.26%    100.00% # attempts to use FU when none available (Count)
system.cpu.statFuBusy::IprAccess                    0      0.00%    100.00% # attempts to use FU when none available (Count)
system.cpu.statFuBusy::InstPrefetch                 0      0.00%    100.00% # attempts to use FU when none available (Count)
system.cpu.statIssuedInstType_0::No_OpClass        23636      0.11%      0.11% # Number of instructions issued per FU type, per thread (Count)
system.cpu.statIssuedInstType_0::IntAlu      18539501     86.99%     87.10% # Number of instructions issued per FU type, per thread (Count)
system.cpu.statIssuedInstType_0::IntMult          288      0.00%     87.10% # Number of instructions issued per FU type, per thread (Count)
system.cpu.statIssuedInstType_0::IntDiv          8418      0.04%     87.14% # Number of instructions issued per FU type, per thread (Count)
system.cpu.statIssuedInstType_0::FloatAdd          326      0.00%     87.15% # Number of instructions issued per FU type, per thread (Count)
system.cpu.statIssuedInstType_0::FloatCmp            0      0.00%     87.15% # Number of instructions issued per FU type, per thread (Count)
system.cpu.statIssuedInstType_0::FloatCvt          512      0.00%     87.15% # Number of instructions issued per FU type, per thread (Count)
system.cpu.statIssuedInstType_0::FloatMult            0      0.00%     87.15% # Number of instructions issued per FU type, per thread (Count)
system.cpu.statIssuedInstType_0::FloatMultAcc            0      0.00%     87.15% # Number of instructions issued per FU type, per thread (Count)
system.cpu.statIssuedInstType_0::FloatDiv            0      0.00%     87.15% # Number of instructions issued per FU type, per thread (Count)
system.cpu.statIssuedInstType_0::FloatMisc            0      0.00%     87.15% # Number of instructions issued per FU type, per thread (Count)
system.cpu.statIssuedInstType_0::FloatSqrt            0      0.00%     87.15% # Number of instructions issued per FU type, per thread (Count)
system.cpu.statIssuedInstType_0::SimdAdd            0      0.00%     87.15% # Number of instructions issued per FU type, per thread (Count)
system.cpu.statIssuedInstType_0::SimdAddAcc            0      0.00%     87.15% # Number of instructions issued per FU type, per thread (Count)
system.cpu.statIssuedInstType_0::SimdAlu          234      0.00%     87.15% # Number of instructions issued per FU type, per thread (Count)
system.cpu.statIssuedInstType_0::SimdCmp            0      0.00%     87.15% # Number of instructions issued per FU type, per thread (Count)
system.cpu.statIssuedInstType_0::SimdCvt          150      0.00%     87.15% # Number of instructions issued per FU type, per thread (Count)
system.cpu.statIssuedInstType_0::SimdMisc          600      0.00%     87.15% # Number of instructions issued per FU type, per thread (Count)
system.cpu.statIssuedInstType_0::SimdMult            0      0.00%     87.15% # Number of instructions issued per FU type, per thread (Count)
system.cpu.statIssuedInstType_0::SimdMultAcc            0      0.00%     87.15% # Number of instructions issued per FU type, per thread (Count)
system.cpu.statIssuedInstType_0::SimdShift            0      0.00%     87.15% # Number of instructions issued per FU type, per thread (Count)
system.cpu.statIssuedInstType_0::SimdShiftAcc            0      0.00%     87.15% # Number of instructions issued per FU type, per thread (Count)
system.cpu.statIssuedInstType_0::SimdDiv            0      0.00%     87.15% # Number of instructions issued per FU type, per thread (Count)
system.cpu.statIssuedInstType_0::SimdSqrt            0      0.00%     87.15% # Number of instructions issued per FU type, per thread (Count)
system.cpu.statIssuedInstType_0::SimdFloatAdd            0      0.00%     87.15% # Number of instructions issued per FU type, per thread (Count)
system.cpu.statIssuedInstType_0::SimdFloatAlu            0      0.00%     87.15% # Number of instructions issued per FU type, per thread (Count)
system.cpu.statIssuedInstType_0::SimdFloatCmp            0      0.00%     87.15% # Number of instructions issued per FU type, per thread (Count)
system.cpu.statIssuedInstType_0::SimdFloatCvt            0      0.00%     87.15% # Number of instructions issued per FU type, per thread (Count)
system.cpu.statIssuedInstType_0::SimdFloatDiv            0      0.00%     87.15% # Number of instructions issued per FU type, per thread (Count)
system.cpu.statIssuedInstType_0::SimdFloatMisc            0      0.00%     87.15% # Number of instructions issued per FU type, per thread (Count)
system.cpu.statIssuedInstType_0::SimdFloatMult            0      0.00%     87.15% # Number of instructions issued per FU type, per thread (Count)
system.cpu.statIssuedInstType_0::SimdFloatMultAcc            0      0.00%     87.15% # Number of instructions issued per FU type, per thread (Count)
system.cpu.statIssuedInstType_0::SimdFloatSqrt            0      0.00%     87.15% # Number of instructions issued per FU type, per thread (Count)
system.cpu.statIssuedInstType_0::SimdReduceAdd            0      0.00%     87.15% # Number of instructions issued per FU type, per thread (Count)
system.cpu.statIssuedInstType_0::SimdReduceAlu            0      0.00%     87.15% # Number of instructions issued per FU type, per thread (Count)
system.cpu.statIssuedInstType_0::SimdReduceCmp            0      0.00%     87.15% # Number of instructions issued per FU type, per thread (Count)
system.cpu.statIssuedInstType_0::SimdFloatReduceAdd            0      0.00%     87.15% # Number of instructions issued per FU type, per thread (Count)
system.cpu.statIssuedInstType_0::SimdFloatReduceCmp            0      0.00%     87.15% # Number of instructions issued per FU type, per thread (Count)
system.cpu.statIssuedInstType_0::SimdAes            0      0.00%     87.15% # Number of instructions issued per FU type, per thread (Count)
system.cpu.statIssuedInstType_0::SimdAesMix            0      0.00%     87.15% # Number of instructions issued per FU type, per thread (Count)
system.cpu.statIssuedInstType_0::SimdSha1Hash            0      0.00%     87.15% # Number of instructions issued per FU type, per thread (Count)
system.cpu.statIssuedInstType_0::SimdSha1Hash2            0      0.00%     87.15% # Number of instructions issued per FU type, per thread (Count)
system.cpu.statIssuedInstType_0::SimdSha256Hash            0      0.00%     87.15% # Number of instructions issued per FU type, per thread (Count)
system.cpu.statIssuedInstType_0::SimdSha256Hash2            0      0.00%     87.15% # Number of instructions issued per FU type, per thread (Count)
system.cpu.statIssuedInstType_0::SimdShaSigma2            0      0.00%     87.15% # Number of instructions issued per FU type, per thread (Count)
system.cpu.statIssuedInstType_0::SimdShaSigma3            0      0.00%     87.15% # Number of instructions issued per FU type, per thread (Count)
system.cpu.statIssuedInstType_0::SimdPredAlu            0      0.00%     87.15% # Number of instructions issued per FU type, per thread (Count)
system.cpu.statIssuedInstType_0::MemRead       181003      0.85%     88.00% # Number of instructions issued per FU type, per thread (Count)
system.cpu.statIssuedInstType_0::MemWrite      2550937     11.97%     99.97% # Number of instructions issued per FU type, per thread (Count)
system.cpu.statIssuedInstType_0::FloatMemRead         1146      0.01%     99.98% # Number of instructions issued per FU type, per thread (Count)
system.cpu.statIssuedInstType_0::FloatMemWrite         4920      0.02%    100.00% # Number of instructions issued per FU type, per thread (Count)
system.cpu.statIssuedInstType_0::IprAccess            0      0.00%    100.00% # Number of instructions issued per FU type, per thread (Count)
system.cpu.statIssuedInstType_0::InstPrefetch            0      0.00%    100.00% # Number of instructions issued per FU type, per thread (Count)
system.cpu.statIssuedInstType_0::total       21311671                       # Number of instructions issued per FU type, per thread (Count)
system.cpu.issueRate                         0.520246                       # Inst issue rate ((Count/Cycle))
system.cpu.fuBusy                               28501                       # FU busy when requested (Count)
system.cpu.fuBusyRate                        0.001337                       # FU busy rate (busy events/executed inst) ((Count/Count))
system.cpu.intInstQueueReads                 83508334                       # Number of integer instruction queue reads (Count)
system.cpu.intInstQueueWrites                23119459                       # Number of integer instruction queue writes (Count)
system.cpu.intInstQueueWakeupAccesses        21129791                       # Number of integer instruction queue wakeup accesses (Count)
system.cpu.fpInstQueueReads                     16462                       # Number of floating instruction queue reads (Count)
system.cpu.fpInstQueueWrites                     8678                       # Number of floating instruction queue writes (Count)
system.cpu.fpInstQueueWakeupAccesses             7872                       # Number of floating instruction queue wakeup accesses (Count)
system.cpu.vecInstQueueReads                        0                       # Number of vector instruction queue reads (Count)
system.cpu.vecInstQueueWrites                       0                       # Number of vector instruction queue writes (Count)
system.cpu.vecInstQueueWakeupAccesses               0                       # Number of vector instruction queue wakeup accesses (Count)
system.cpu.intAluAccesses                    21308058                       # Number of integer alu accesses (Count)
system.cpu.fpAluAccesses                         8478                       # Number of floating point alu accesses (Count)
system.cpu.vecAluAccesses                           0                       # Number of vector alu accesses (Count)
system.cpu.numInsts                          21263654                       # Number of executed instructions (Count)
system.cpu.numLoadInsts                        177655                       # Number of load instructions executed (Count)
system.cpu.numSquashedInsts                     48017                       # Number of squashed instructions skipped in execute (Count)
system.cpu.numSwp                                   0                       # Number of swp insts executed (Count)
system.cpu.numNop                                   0                       # Number of nop insts executed (Count)
system.cpu.numRefs                            2731996                       # Number of memory reference insts executed (Count)
system.cpu.numBranches                        2635052                       # Number of branches executed (Count)
system.cpu.numStoreInsts                      2554341                       # Number of stores executed (Count)
system.cpu.numRate                           0.519074                       # Inst execution rate ((Count/Cycle))
system.cpu.timesIdled                            1030                       # Number of times that the entire CPU went into an idle state and unscheduled itself (Count)
system.cpu.idleCycles                           93164                       # Total number of cycles that the CPU has spent unscheduled due to idling (Cycle)
system.cpu.committedInsts                    10000000                       # Number of Instructions Simulated (Count)
system.cpu.committedOps                      19896901                       # Number of Ops (including micro ops) Simulated (Count)
system.cpu.cpi                               4.096458                       # CPI: Cycles Per Instruction ((Cycle/Count))
system.cpu.totalCpi                          4.096458                       # CPI: Total CPI of All Threads ((Cycle/Count))
system.cpu.ipc                               0.244113                       # IPC: Instructions Per Cycle ((Count/Cycle))
system.cpu.totalIpc                          0.244113                       # IPC: Total IPC of All Threads ((Count/Cycle))
system.cpu.intRegfileReads                   24194378                       # Number of integer regfile reads (Count)
system.cpu.intRegfileWrites                  13449185                       # Number of integer regfile writes (Count)
system.cpu.fpRegfileReads                        8590                       # Number of floating regfile reads (Count)
system.cpu.fpRegfileWrites                       2351                       # Number of floating regfile writes (Count)
system.cpu.ccRegfileReads                    13203511                       # number of cc regfile reads (Count)
system.cpu.ccRegfileWrites                   10434350                       # number of cc regfile writes (Count)
system.cpu.miscRegfileReads                   8033592                       # number of misc regfile reads (Count)
system.cpu.miscRegfileWrites                      272                       # number of misc regfile writes (Count)
system.cpu.MemDepUnit__0.insertedLoads         197920                       # Number of loads inserted to the mem dependence unit. (Count)
system.cpu.MemDepUnit__0.insertedStores       2566771                       # Number of stores inserted to the mem dependence unit. (Count)
system.cpu.MemDepUnit__0.conflictingLoads         5927                       # Number of conflicting loads. (Count)
system.cpu.MemDepUnit__0.conflictingStores         4714                       # Number of conflicting stores. (Count)
system.cpu.MemDepUnit__1.insertedLoads              0                       # Number of loads inserted to the mem dependence unit. (Count)
system.cpu.MemDepUnit__1.insertedStores             0                       # Number of stores inserted to the mem dependence unit. (Count)
system.cpu.MemDepUnit__1.conflictingLoads            0                       # Number of conflicting loads. (Count)
system.cpu.MemDepUnit__1.conflictingStores            0                       # Number of conflicting stores. (Count)
system.cpu.MemDepUnit__2.insertedLoads              0                       # Number of loads inserted to the mem dependence unit. (Count)
system.cpu.MemDepUnit__2.insertedStores             0                       # Number of stores inserted to the mem dependence unit. (Count)
system.cpu.MemDepUnit__2.conflictingLoads            0                       # Number of conflicting loads. (Count)
system.cpu.MemDepUnit__2.conflictingStores            0                       # Number of conflicting stores. (Count)
system.cpu.MemDepUnit__3.insertedLoads              0                       # Number of loads inserted to the mem dependence unit. (Count)
system.cpu.MemDepUnit__3.insertedStores             0                       # Number of stores inserted to the mem dependence unit. (Count)
system.cpu.MemDepUnit__3.conflictingLoads            0                       # Number of conflicting loads. (Count)
system.cpu.MemDepUnit__3.conflictingStores            0                       # Number of conflicting stores. (Count)
system.cpu.branchPred.lookups                 2776088                       # Number of BP lookups (Count)
system.cpu.branchPred.condPredicted           2738296                       # Number of conditional branches predicted (Count)
system.cpu.branchPred.condIncorrect             30077                       # Number of conditional branches incorrect (Count)
system.cpu.branchPred.BTBLookups              2664159                       # Number of BTB lookups (Count)
system.cpu.branchPred.BTBHits                 2659774                       # Number of BTB hits (Count)
system.cpu.branchPred.BTBHitRatio            0.998354                       # BTB Hit Ratio (Ratio)
system.cpu.branchPred.RASUsed                   10847                       # Number of times the RAS was used to get a target. (Count)
system.cpu.branchPred.RASIncorrect                 11                       # Number of incorrect RAS predictions. (Count)
system.cpu.branchPred.indirectLookups            3477                       # Number of indirect predictor lookups. (Count)
system.cpu.branchPred.indirectHits               1101                       # Number of indirect target hits. (Count)
system.cpu.branchPred.indirectMisses             2376                       # Number of indirect misses. (Count)
system.cpu.branchPred.indirectMispredicted          494                       # Number of mispredicted indirect branches. (Count)
system.cpu.commit.commitSquashedInsts         1610256                       # The number of squashed insts skipped by commit (Count)
system.cpu.commit.commitNonSpecStalls             274                       # The number of times commit has been forced to stall to communicate backwards (Count)
system.cpu.commit.branchMispredicts             29216                       # The number of times a branch was mispredicted (Count)
system.cpu.commit.numCommittedDist::samples     40652278                       # Number of insts commited each cycle (Count)
system.cpu.commit.numCommittedDist::mean     0.489441                       # Number of insts commited each cycle (Count)
system.cpu.commit.numCommittedDist::stdev     1.482135                       # Number of insts commited each cycle (Count)
system.cpu.commit.numCommittedDist::underflows            0      0.00%      0.00% # Number of insts commited each cycle (Count)
system.cpu.commit.numCommittedDist::0        34750301     85.48%     85.48% # Number of insts commited each cycle (Count)
system.cpu.commit.numCommittedDist::1         1799411      4.43%     89.91% # Number of insts commited each cycle (Count)
system.cpu.commit.numCommittedDist::2          325559      0.80%     90.71% # Number of insts commited each cycle (Count)
system.cpu.commit.numCommittedDist::3         2012275      4.95%     95.66% # Number of insts commited each cycle (Count)
system.cpu.commit.numCommittedDist::4           33549      0.08%     95.74% # Number of insts commited each cycle (Count)
system.cpu.commit.numCommittedDist::5          846421      2.08%     97.82% # Number of insts commited each cycle (Count)
system.cpu.commit.numCommittedDist::6           14355      0.04%     97.86% # Number of insts commited each cycle (Count)
system.cpu.commit.numCommittedDist::7            6140      0.02%     97.87% # Number of insts commited each cycle (Count)
system.cpu.commit.numCommittedDist::8          864267      2.13%    100.00% # Number of insts commited each cycle (Count)
system.cpu.commit.numCommittedDist::overflows            0      0.00%    100.00% # Number of insts commited each cycle (Count)
system.cpu.commit.numCommittedDist::min_value            0                       # Number of insts commited each cycle (Count)
system.cpu.commit.numCommittedDist::max_value            8                       # Number of insts commited each cycle (Count)
system.cpu.commit.numCommittedDist::total     40652278                       # Number of insts commited each cycle (Count)
system.cpu.commit.instsCommitted             10000000                       # Number of instructions committed (Count)
system.cpu.commit.opsCommitted               19896901                       # Number of ops (including micro ops) committed (Count)
system.cpu.commit.memRefs                     2532961                       # Number of memory references committed (Count)
system.cpu.commit.loads                        130044                       # Number of loads committed (Count)
system.cpu.commit.amos                              0                       # Number of atomic instructions committed (Count)
system.cpu.commit.membars                           0                       # Number of memory barriers committed (Count)
system.cpu.commit.branches                    2492053                       # Number of branches committed (Count)
system.cpu.commit.vectorInstructions                0                       # Number of committed Vector instructions. (Count)
system.cpu.commit.floating                       7634                       # Number of committed floating point instructions. (Count)
system.cpu.commit.integer                    19869082                       # Number of committed integer instructions. (Count)
system.cpu.commit.functionCalls                  6493                       # Number of function calls committed. (Count)
system.cpu.commit.committedInstType_0::No_OpClass        20527      0.10%      0.10% # Class of committed instruction (Count)
system.cpu.commit.committedInstType_0::IntAlu     17333933     87.12%     87.22% # Class of committed instruction (Count)
system.cpu.commit.committedInstType_0::IntMult          205      0.00%     87.22% # Class of committed instruction (Count)
system.cpu.commit.committedInstType_0::IntDiv         7632      0.04%     87.26% # Class of committed instruction (Count)
system.cpu.commit.committedInstType_0::FloatAdd          320      0.00%     87.26% # Class of committed instruction (Count)
system.cpu.commit.committedInstType_0::FloatCmp            0      0.00%     87.26% # Class of committed instruction (Count)
system.cpu.commit.committedInstType_0::FloatCvt          480      0.00%     87.27% # Class of committed instruction (Count)
system.cpu.commit.committedInstType_0::FloatMult            0      0.00%     87.27% # Class of committed instruction (Count)
system.cpu.commit.committedInstType_0::FloatMultAcc            0      0.00%     87.27% # Class of committed instruction (Count)
system.cpu.commit.committedInstType_0::FloatDiv            0      0.00%     87.27% # Class of committed instruction (Count)
system.cpu.commit.committedInstType_0::FloatMisc            0      0.00%     87.27% # Class of committed instruction (Count)
system.cpu.commit.committedInstType_0::FloatSqrt            0      0.00%     87.27% # Class of committed instruction (Count)
system.cpu.commit.committedInstType_0::SimdAdd            0      0.00%     87.27% # Class of committed instruction (Count)
system.cpu.commit.committedInstType_0::SimdAddAcc            0      0.00%     87.27% # Class of committed instruction (Count)
system.cpu.commit.committedInstType_0::SimdAlu          166      0.00%     87.27% # Class of committed instruction (Count)
system.cpu.commit.committedInstType_0::SimdCmp            0      0.00%     87.27% # Class of committed instruction (Count)
system.cpu.commit.committedInstType_0::SimdCvt          118      0.00%     87.27% # Class of committed instruction (Count)
system.cpu.commit.committedInstType_0::SimdMisc          559      0.00%     87.27% # Class of committed instruction (Count)
system.cpu.commit.committedInstType_0::SimdMult            0      0.00%     87.27% # Class of committed instruction (Count)
system.cpu.commit.committedInstType_0::SimdMultAcc            0      0.00%     87.27% # Class of committed instruction (Count)
system.cpu.commit.committedInstType_0::SimdShift            0      0.00%     87.27% # Class of committed instruction (Count)
system.cpu.commit.committedInstType_0::SimdShiftAcc            0      0.00%     87.27% # Class of committed instruction (Count)
system.cpu.commit.committedInstType_0::SimdDiv            0      0.00%     87.27% # Class of committed instruction (Count)
system.cpu.commit.committedInstType_0::SimdSqrt            0      0.00%     87.27% # Class of committed instruction (Count)
system.cpu.commit.committedInstType_0::SimdFloatAdd            0      0.00%     87.27% # Class of committed instruction (Count)
system.cpu.commit.committedInstType_0::SimdFloatAlu            0      0.00%     87.27% # Class of committed instruction (Count)
system.cpu.commit.committedInstType_0::SimdFloatCmp            0      0.00%     87.27% # Class of committed instruction (Count)
system.cpu.commit.committedInstType_0::SimdFloatCvt            0      0.00%     87.27% # Class of committed instruction (Count)
system.cpu.commit.committedInstType_0::SimdFloatDiv            0      0.00%     87.27% # Class of committed instruction (Count)
system.cpu.commit.committedInstType_0::SimdFloatMisc            0      0.00%     87.27% # Class of committed instruction (Count)
system.cpu.commit.committedInstType_0::SimdFloatMult            0      0.00%     87.27% # Class of committed instruction (Count)
system.cpu.commit.committedInstType_0::SimdFloatMultAcc            0      0.00%     87.27% # Class of committed instruction (Count)
system.cpu.commit.committedInstType_0::SimdFloatSqrt            0      0.00%     87.27% # Class of committed instruction (Count)
system.cpu.commit.committedInstType_0::SimdReduceAdd            0      0.00%     87.27% # Class of committed instruction (Count)
system.cpu.commit.committedInstType_0::SimdReduceAlu            0      0.00%     87.27% # Class of committed instruction (Count)
system.cpu.commit.committedInstType_0::SimdReduceCmp            0      0.00%     87.27% # Class of committed instruction (Count)
system.cpu.commit.committedInstType_0::SimdFloatReduceAdd            0      0.00%     87.27% # Class of committed instruction (Count)
system.cpu.commit.committedInstType_0::SimdFloatReduceCmp            0      0.00%     87.27% # Class of committed instruction (Count)
system.cpu.commit.committedInstType_0::SimdAes            0      0.00%     87.27% # Class of committed instruction (Count)
system.cpu.commit.committedInstType_0::SimdAesMix            0      0.00%     87.27% # Class of committed instruction (Count)
system.cpu.commit.committedInstType_0::SimdSha1Hash            0      0.00%     87.27% # Class of committed instruction (Count)
system.cpu.commit.committedInstType_0::SimdSha1Hash2            0      0.00%     87.27% # Class of committed instruction (Count)
system.cpu.commit.committedInstType_0::SimdSha256Hash            0      0.00%     87.27% # Class of committed instruction (Count)
system.cpu.commit.committedInstType_0::SimdSha256Hash2            0      0.00%     87.27% # Class of committed instruction (Count)
system.cpu.commit.committedInstType_0::SimdShaSigma2            0      0.00%     87.27% # Class of committed instruction (Count)
system.cpu.commit.committedInstType_0::SimdShaSigma3            0      0.00%     87.27% # Class of committed instruction (Count)
system.cpu.commit.committedInstType_0::SimdPredAlu            0      0.00%     87.27% # Class of committed instruction (Count)
system.cpu.commit.committedInstType_0::MemRead       128961      0.65%     87.92% # Class of committed instruction (Count)
system.cpu.commit.committedInstType_0::MemWrite      2398084     12.05%     99.97% # Class of committed instruction (Count)
system.cpu.commit.committedInstType_0::FloatMemRead         1083      0.01%     99.98% # Class of committed instruction (Count)
system.cpu.commit.committedInstType_0::FloatMemWrite         4833      0.02%    100.00% # Class of committed instruction (Count)
system.cpu.commit.committedInstType_0::IprAccess            0      0.00%    100.00% # Class of committed instruction (Count)
system.cpu.commit.committedInstType_0::InstPrefetch            0      0.00%    100.00% # Class of committed instruction (Count)
system.cpu.commit.committedInstType_0::total     19896901                       # Class of committed instruction (Count)
system.cpu.commit.commitEligibleSamples        864267                       # number cycles where commit BW limit reached (Cycle)
system.cpu.dcache.demandHits::cpu.data        2251631                       # number of demand (read+write) hits (Count)
system.cpu.dcache.demandHits::total           2251631                       # number of demand (read+write) hits (Count)
system.cpu.dcache.overallHits::cpu.data       2251631                       # number of overall hits (Count)
system.cpu.dcache.overallHits::total          2251631                       # number of overall hits (Count)
system.cpu.dcache.demandMisses::cpu.data       310823                       # number of demand (read+write) misses (Count)
system.cpu.dcache.demandMisses::total          310823                       # number of demand (read+write) misses (Count)
system.cpu.dcache.overallMisses::cpu.data       310823                       # number of overall misses (Count)
system.cpu.dcache.overallMisses::total         310823                       # number of overall misses (Count)
system.cpu.dcache.demandMissLatency::cpu.data  18856626981                       # number of demand (read+write) miss ticks (Tick)
system.cpu.dcache.demandMissLatency::total  18856626981                       # number of demand (read+write) miss ticks (Tick)
system.cpu.dcache.overallMissLatency::cpu.data  18856626981                       # number of overall miss ticks (Tick)
system.cpu.dcache.overallMissLatency::total  18856626981                       # number of overall miss ticks (Tick)
system.cpu.dcache.demandAccesses::cpu.data      2562454                       # number of demand (read+write) accesses (Count)
system.cpu.dcache.demandAccesses::total       2562454                       # number of demand (read+write) accesses (Count)
system.cpu.dcache.overallAccesses::cpu.data      2562454                       # number of overall (read+write) accesses (Count)
system.cpu.dcache.overallAccesses::total      2562454                       # number of overall (read+write) accesses (Count)
system.cpu.dcache.demandMissRate::cpu.data     0.121299                       # miss rate for demand accesses (Ratio)
system.cpu.dcache.demandMissRate::total      0.121299                       # miss rate for demand accesses (Ratio)
system.cpu.dcache.overallMissRate::cpu.data     0.121299                       # miss rate for overall accesses (Ratio)
system.cpu.dcache.overallMissRate::total     0.121299                       # miss rate for overall accesses (Ratio)
system.cpu.dcache.demandAvgMissLatency::cpu.data 60666.768486                       # average overall miss latency in ticks ((Tick/Count))
system.cpu.dcache.demandAvgMissLatency::total 60666.768486                       # average overall miss latency in ticks ((Tick/Count))
system.cpu.dcache.overallAvgMissLatency::cpu.data 60666.768486                       # average overall miss latency ((Tick/Count))
system.cpu.dcache.overallAvgMissLatency::total 60666.768486                       # average overall miss latency ((Tick/Count))
system.cpu.dcache.blockedCycles::no_mshrs        22472                       # number of cycles access was blocked (Cycle)
system.cpu.dcache.blockedCycles::no_targets           98                       # number of cycles access was blocked (Cycle)
system.cpu.dcache.blockedCauses::no_mshrs          463                       # number of times access was blocked (Count)
system.cpu.dcache.blockedCauses::no_targets            2                       # number of times access was blocked (Count)
system.cpu.dcache.avgBlocked::no_mshrs      48.535637                       # average number of cycles each access was blocked ((Cycle/Count))
system.cpu.dcache.avgBlocked::no_targets           49                       # average number of cycles each access was blocked ((Cycle/Count))
system.cpu.dcache.writebacks::writebacks       293535                       # number of writebacks (Count)
system.cpu.dcache.writebacks::total            293535                       # number of writebacks (Count)
system.cpu.dcache.demandMshrHits::cpu.data        12535                       # number of demand (read+write) MSHR hits (Count)
system.cpu.dcache.demandMshrHits::total         12535                       # number of demand (read+write) MSHR hits (Count)
system.cpu.dcache.overallMshrHits::cpu.data        12535                       # number of overall MSHR hits (Count)
system.cpu.dcache.overallMshrHits::total        12535                       # number of overall MSHR hits (Count)
system.cpu.dcache.demandMshrMisses::cpu.data       298288                       # number of demand (read+write) MSHR misses (Count)
system.cpu.dcache.demandMshrMisses::total       298288                       # number of demand (read+write) MSHR misses (Count)
system.cpu.dcache.overallMshrMisses::cpu.data       298288                       # number of overall MSHR misses (Count)
system.cpu.dcache.overallMshrMisses::total       298288                       # number of overall MSHR misses (Count)
system.cpu.dcache.demandMshrMissLatency::cpu.data  17931319981                       # number of demand (read+write) MSHR miss ticks (Tick)
system.cpu.dcache.demandMshrMissLatency::total  17931319981                       # number of demand (read+write) MSHR miss ticks (Tick)
system.cpu.dcache.overallMshrMissLatency::cpu.data  17931319981                       # number of overall MSHR miss ticks (Tick)
system.cpu.dcache.overallMshrMissLatency::total  17931319981                       # number of overall MSHR miss ticks (Tick)
system.cpu.dcache.demandMshrMissRate::cpu.data     0.116407                       # mshr miss ratio for demand accesses (Ratio)
system.cpu.dcache.demandMshrMissRate::total     0.116407                       # mshr miss ratio for demand accesses (Ratio)
system.cpu.dcache.overallMshrMissRate::cpu.data     0.116407                       # mshr miss ratio for overall accesses (Ratio)
system.cpu.dcache.overallMshrMissRate::total     0.116407                       # mshr miss ratio for overall accesses (Ratio)
system.cpu.dcache.demandAvgMshrMissLatency::cpu.data 60114.117836                       # average overall mshr miss latency ((Tick/Count))
system.cpu.dcache.demandAvgMshrMissLatency::total 60114.117836                       # average overall mshr miss latency ((Tick/Count))
system.cpu.dcache.overallAvgMshrMissLatency::cpu.data 60114.117836                       # average overall mshr miss latency ((Tick/Count))
system.cpu.dcache.overallAvgMshrMissLatency::total 60114.117836                       # average overall mshr miss latency ((Tick/Count))
system.cpu.dcache.replacements                 297773                       # number of replacements (Count)
system.cpu.dcache.ReadReq.hits::cpu.data       142503                       # number of ReadReq hits (Count)
system.cpu.dcache.ReadReq.hits::total          142503                       # number of ReadReq hits (Count)
system.cpu.dcache.ReadReq.misses::cpu.data        17051                       # number of ReadReq misses (Count)
system.cpu.dcache.ReadReq.misses::total         17051                       # number of ReadReq misses (Count)
system.cpu.dcache.ReadReq.missLatency::cpu.data    921785000                       # number of ReadReq miss ticks (Tick)
system.cpu.dcache.ReadReq.missLatency::total    921785000                       # number of ReadReq miss ticks (Tick)
system.cpu.dcache.ReadReq.accesses::cpu.data       159554                       # number of ReadReq accesses(hits+misses) (Count)
system.cpu.dcache.ReadReq.accesses::total       159554                       # number of ReadReq accesses(hits+misses) (Count)
system.cpu.dcache.ReadReq.missRate::cpu.data     0.106867                       # miss rate for ReadReq accesses (Ratio)
system.cpu.dcache.ReadReq.missRate::total     0.106867                       # miss rate for ReadReq accesses (Ratio)
system.cpu.dcache.ReadReq.avgMissLatency::cpu.data 54060.465662                       # average ReadReq miss latency ((Tick/Count))
system.cpu.dcache.ReadReq.avgMissLatency::total 54060.465662                       # average ReadReq miss latency ((Tick/Count))
system.cpu.dcache.ReadReq.mshrHits::cpu.data        12528                       # number of ReadReq MSHR hits (Count)
system.cpu.dcache.ReadReq.mshrHits::total        12528                       # number of ReadReq MSHR hits (Count)
system.cpu.dcache.ReadReq.mshrMisses::cpu.data         4523                       # number of ReadReq MSHR misses (Count)
system.cpu.dcache.ReadReq.mshrMisses::total         4523                       # number of ReadReq MSHR misses (Count)
system.cpu.dcache.ReadReq.mshrMissLatency::cpu.data    290519500                       # number of ReadReq MSHR miss ticks (Tick)
system.cpu.dcache.ReadReq.mshrMissLatency::total    290519500                       # number of ReadReq MSHR miss ticks (Tick)
system.cpu.dcache.ReadReq.mshrMissRate::cpu.data     0.028348                       # mshr miss rate for ReadReq accesses (Ratio)
system.cpu.dcache.ReadReq.mshrMissRate::total     0.028348                       # mshr miss rate for ReadReq accesses (Ratio)
system.cpu.dcache.ReadReq.avgMshrMissLatency::cpu.data 64231.594075                       # average ReadReq mshr miss latency ((Tick/Count))
system.cpu.dcache.ReadReq.avgMshrMissLatency::total 64231.594075                       # average ReadReq mshr miss latency ((Tick/Count))
system.cpu.dcache.WriteReq.hits::cpu.data      2109128                       # number of WriteReq hits (Count)
system.cpu.dcache.WriteReq.hits::total        2109128                       # number of WriteReq hits (Count)
system.cpu.dcache.WriteReq.misses::cpu.data       293772                       # number of WriteReq misses (Count)
system.cpu.dcache.WriteReq.misses::total       293772                       # number of WriteReq misses (Count)
system.cpu.dcache.WriteReq.missLatency::cpu.data  17934841981                       # number of WriteReq miss ticks (Tick)
system.cpu.dcache.WriteReq.missLatency::total  17934841981                       # number of WriteReq miss ticks (Tick)
system.cpu.dcache.WriteReq.accesses::cpu.data      2402900                       # number of WriteReq accesses(hits+misses) (Count)
system.cpu.dcache.WriteReq.accesses::total      2402900                       # number of WriteReq accesses(hits+misses) (Count)
system.cpu.dcache.WriteReq.missRate::cpu.data     0.122257                       # miss rate for WriteReq accesses (Ratio)
system.cpu.dcache.WriteReq.missRate::total     0.122257                       # miss rate for WriteReq accesses (Ratio)
system.cpu.dcache.WriteReq.avgMissLatency::cpu.data 61050.208941                       # average WriteReq miss latency ((Tick/Count))
system.cpu.dcache.WriteReq.avgMissLatency::total 61050.208941                       # average WriteReq miss latency ((Tick/Count))
system.cpu.dcache.WriteReq.mshrHits::cpu.data            7                       # number of WriteReq MSHR hits (Count)
system.cpu.dcache.WriteReq.mshrHits::total            7                       # number of WriteReq MSHR hits (Count)
system.cpu.dcache.WriteReq.mshrMisses::cpu.data       293765                       # number of WriteReq MSHR misses (Count)
system.cpu.dcache.WriteReq.mshrMisses::total       293765                       # number of WriteReq MSHR misses (Count)
system.cpu.dcache.WriteReq.mshrMissLatency::cpu.data  17640800481                       # number of WriteReq MSHR miss ticks (Tick)
system.cpu.dcache.WriteReq.mshrMissLatency::total  17640800481                       # number of WriteReq MSHR miss ticks (Tick)
system.cpu.dcache.WriteReq.mshrMissRate::cpu.data     0.122254                       # mshr miss rate for WriteReq accesses (Ratio)
system.cpu.dcache.WriteReq.mshrMissRate::total     0.122254                       # mshr miss rate for WriteReq accesses (Ratio)
system.cpu.dcache.WriteReq.avgMshrMissLatency::cpu.data 60050.722452                       # average WriteReq mshr miss latency ((Tick/Count))
system.cpu.dcache.WriteReq.avgMshrMissLatency::total 60050.722452                       # average WriteReq mshr miss latency ((Tick/Count))
system.cpu.dcache.power_state.pwrStateResidencyTicks::UNDEFINED  20482292000                       # Cumulative time (in ticks) in various power states (Tick)
system.cpu.dcache.tags.tagsInUse           511.308614                       # Average ticks per tags in use ((Tick/Count))
system.cpu.dcache.tags.totalRefs              2549918                       # Total number of references to valid blocks. (Count)
system.cpu.dcache.tags.sampledRefs             298285                       # Sample count of references to valid blocks. (Count)
system.cpu.dcache.tags.avgRefs               8.548596                       # Average number of references to valid blocks. ((Count/Count))
system.cpu.dcache.tags.warmupTick              148000                       # The tick when the warmup percentage was hit. (Tick)
system.cpu.dcache.tags.occupancies::cpu.data   511.308614                       # Average occupied blocks per tick, per requestor ((Count/Tick))
system.cpu.dcache.tags.avgOccs::cpu.data     0.998650                       # Average percentage of cache occupancy ((Ratio/Tick))
system.cpu.dcache.tags.avgOccs::total        0.998650                       # Average percentage of cache occupancy ((Ratio/Tick))
system.cpu.dcache.tags.occupanciesTaskId::1024          512                       # Occupied blocks per task id (Count)
system.cpu.dcache.tags.ageTaskId_1024::0          146                       # Occupied blocks per task id, per block age (Count)
system.cpu.dcache.tags.ageTaskId_1024::1          366                       # Occupied blocks per task id, per block age (Count)
system.cpu.dcache.tags.ratioOccsTaskId::1024            1                       # Ratio of occupied blocks and all blocks, per task id (Ratio)
system.cpu.dcache.tags.tagAccesses           20797917                       # Number of tag accesses (Count)
system.cpu.dcache.tags.dataAccesses          20797917                       # Number of data accesses (Count)
system.cpu.dcache.tags.power_state.pwrStateResidencyTicks::UNDEFINED  20482292000                       # Cumulative time (in ticks) in various power states (Tick)
system.cpu.decode.idleCycles                  1732969                       # Number of cycles decode is idle (Cycle)
system.cpu.decode.blockedCycles              35579710                       # Number of cycles decode is blocked (Cycle)
system.cpu.decode.runCycles                   2914285                       # Number of cycles decode is running (Cycle)
system.cpu.decode.unblockCycles                610224                       # Number of cycles decode is unblocking (Cycle)
system.cpu.decode.squashCycles                  34233                       # Number of cycles decode is squashing (Cycle)
system.cpu.decode.branchResolved              2607785                       # Number of times decode resolved a branch (Count)
system.cpu.decode.branchMispred                  1377                       # Number of times decode detected a branch misprediction (Count)
system.cpu.decode.decodedInsts               21738677                       # Number of instructions handled by decode (Count)
system.cpu.decode.squashedInsts                  6198                       # Number of squashed instructions handled by decode (Count)
system.cpu.dtb_walker_cache.blockedCycles::no_mshrs            0                       # number of cycles access was blocked (Cycle)
system.cpu.dtb_walker_cache.blockedCycles::no_targets            0                       # number of cycles access was blocked (Cycle)
system.cpu.dtb_walker_cache.blockedCauses::no_mshrs            0                       # number of times access was blocked (Count)
system.cpu.dtb_walker_cache.blockedCauses::no_targets            0                       # number of times access was blocked (Count)
system.cpu.dtb_walker_cache.avgBlocked::no_mshrs          nan                       # average number of cycles each access was blocked ((Cycle/Count))
system.cpu.dtb_walker_cache.avgBlocked::no_targets          nan                       # average number of cycles each access was blocked ((Cycle/Count))
system.cpu.dtb_walker_cache.replacements            0                       # number of replacements (Count)
system.cpu.dtb_walker_cache.power_state.pwrStateResidencyTicks::UNDEFINED  20482292000                       # Cumulative time (in ticks) in various power states (Tick)
system.cpu.dtb_walker_cache.tags.tagsInUse            0                       # Average ticks per tags in use ((Tick/Count))
system.cpu.dtb_walker_cache.tags.totalRefs            0                       # Total number of references to valid blocks. (Count)
system.cpu.dtb_walker_cache.tags.sampledRefs            0                       # Sample count of references to valid blocks. (Count)
system.cpu.dtb_walker_cache.tags.avgRefs          nan                       # Average number of references to valid blocks. ((Count/Count))
system.cpu.dtb_walker_cache.tags.warmupTick            0                       # The tick when the warmup percentage was hit. (Tick)
system.cpu.dtb_walker_cache.tags.tagAccesses            0                       # Number of tag accesses (Count)
system.cpu.dtb_walker_cache.tags.dataAccesses            0                       # Number of data accesses (Count)
system.cpu.dtb_walker_cache.tags.power_state.pwrStateResidencyTicks::UNDEFINED  20482292000                       # Cumulative time (in ticks) in various power states (Tick)
system.cpu.fetch.icacheStallCycles            5300417                       # Number of cycles fetch is stalled on an Icache miss (Cycle)
system.cpu.fetch.insts                       11174970                       # Number of instructions fetch has processed (Count)
system.cpu.fetch.branches                     2776088                       # Number of branches that fetch encountered (Count)
system.cpu.fetch.predictedBranches            2671722                       # Number of branches that fetch has predicted taken (Count)
system.cpu.fetch.cycles                      35531091                       # Number of cycles fetch has run and was not squashing or blocked (Cycle)
system.cpu.fetch.squashCycles                   71166                       # Number of cycles fetch has spent squashing (Cycle)
system.cpu.fetch.miscStallCycles                  543                       # Number of cycles fetch has spent waiting on interrupts, or bad addresses, or out of MSHRs (Cycle)
system.cpu.fetch.pendingTrapStallCycles          3787                       # Number of stall cycles due to pending traps (Cycle)
system.cpu.fetch.cacheLines                   5244493                       # Number of cache lines fetched (Count)
system.cpu.fetch.icacheSquashes                 17002                       # Number of outstanding Icache misses that were squashed (Count)
system.cpu.fetch.nisnDist::samples           40871421                       # Number of instructions fetched each cycle (Total) (Count)
system.cpu.fetch.nisnDist::mean              0.542810                       # Number of instructions fetched each cycle (Total) (Count)
system.cpu.fetch.nisnDist::stdev             1.585898                       # Number of instructions fetched each cycle (Total) (Count)
system.cpu.fetch.nisnDist::underflows               0      0.00%      0.00% # Number of instructions fetched each cycle (Total) (Count)
system.cpu.fetch.nisnDist::0                 35491342     86.84%     86.84% # Number of instructions fetched each cycle (Total) (Count)
system.cpu.fetch.nisnDist::1                    26229      0.06%     86.90% # Number of instructions fetched each cycle (Total) (Count)
system.cpu.fetch.nisnDist::2                  2540569      6.22%     93.12% # Number of instructions fetched each cycle (Total) (Count)
system.cpu.fetch.nisnDist::3                    24396      0.06%     93.18% # Number of instructions fetched each cycle (Total) (Count)
system.cpu.fetch.nisnDist::4                    25328      0.06%     93.24% # Number of instructions fetched each cycle (Total) (Count)
system.cpu.fetch.nisnDist::5                    19352      0.05%     93.29% # Number of instructions fetched each cycle (Total) (Count)
system.cpu.fetch.nisnDist::6                  2556739      6.26%     99.54% # Number of instructions fetched each cycle (Total) (Count)
system.cpu.fetch.nisnDist::7                    33362      0.08%     99.62% # Number of instructions fetched each cycle (Total) (Count)
system.cpu.fetch.nisnDist::8                   154104      0.38%    100.00% # Number of instructions fetched each cycle (Total) (Count)
system.cpu.fetch.nisnDist::overflows                0      0.00%    100.00% # Number of instructions fetched each cycle (Total) (Count)
system.cpu.fetch.nisnDist::min_value                0                       # Number of instructions fetched each cycle (Total) (Count)
system.cpu.fetch.nisnDist::max_value                8                       # Number of instructions fetched each cycle (Total) (Count)
system.cpu.fetch.nisnDist::total             40871421                       # Number of instructions fetched each cycle (Total) (Count)
system.cpu.fetch.branchRate                  0.067768                       # Number of branch fetches per cycle (Ratio)
system.cpu.fetch.rate                        0.272796                       # Number of inst fetches per cycle ((Count/Cycle))
system.cpu.icache.demandHits::cpu.inst        5242331                       # number of demand (read+write) hits (Count)
system.cpu.icache.demandHits::total           5242331                       # number of demand (read+write) hits (Count)
system.cpu.icache.overallHits::cpu.inst       5242331                       # number of overall hits (Count)
system.cpu.icache.overallHits::total          5242331                       # number of overall hits (Count)
system.cpu.icache.demandMisses::cpu.inst         2162                       # number of demand (read+write) misses (Count)
system.cpu.icache.demandMisses::total            2162                       # number of demand (read+write) misses (Count)
system.cpu.icache.overallMisses::cpu.inst         2162                       # number of overall misses (Count)
system.cpu.icache.overallMisses::total           2162                       # number of overall misses (Count)
system.cpu.icache.demandMissLatency::cpu.inst    129660000                       # number of demand (read+write) miss ticks (Tick)
system.cpu.icache.demandMissLatency::total    129660000                       # number of demand (read+write) miss ticks (Tick)
system.cpu.icache.overallMissLatency::cpu.inst    129660000                       # number of overall miss ticks (Tick)
system.cpu.icache.overallMissLatency::total    129660000                       # number of overall miss ticks (Tick)
system.cpu.icache.demandAccesses::cpu.inst      5244493                       # number of demand (read+write) accesses (Count)
system.cpu.icache.demandAccesses::total       5244493                       # number of demand (read+write) accesses (Count)
system.cpu.icache.overallAccesses::cpu.inst      5244493                       # number of overall (read+write) accesses (Count)
system.cpu.icache.overallAccesses::total      5244493                       # number of overall (read+write) accesses (Count)
system.cpu.icache.demandMissRate::cpu.inst     0.000412                       # miss rate for demand accesses (Ratio)
system.cpu.icache.demandMissRate::total      0.000412                       # miss rate for demand accesses (Ratio)
system.cpu.icache.overallMissRate::cpu.inst     0.000412                       # miss rate for overall accesses (Ratio)
system.cpu.icache.overallMissRate::total     0.000412                       # miss rate for overall accesses (Ratio)
system.cpu.icache.demandAvgMissLatency::cpu.inst 59972.247919                       # average overall miss latency in ticks ((Tick/Count))
system.cpu.icache.demandAvgMissLatency::total 59972.247919                       # average overall miss latency in ticks ((Tick/Count))
system.cpu.icache.overallAvgMissLatency::cpu.inst 59972.247919                       # average overall miss latency ((Tick/Count))
system.cpu.icache.overallAvgMissLatency::total 59972.247919                       # average overall miss latency ((Tick/Count))
system.cpu.icache.blockedCycles::no_mshrs           25                       # number of cycles access was blocked (Cycle)
system.cpu.icache.blockedCycles::no_targets            0                       # number of cycles access was blocked (Cycle)
system.cpu.icache.blockedCauses::no_mshrs            1                       # number of times access was blocked (Count)
system.cpu.icache.blockedCauses::no_targets            0                       # number of times access was blocked (Count)
system.cpu.icache.avgBlocked::no_mshrs             25                       # average number of cycles each access was blocked ((Cycle/Count))
system.cpu.icache.avgBlocked::no_targets          nan                       # average number of cycles each access was blocked ((Cycle/Count))
system.cpu.icache.writebacks::writebacks         1105                       # number of writebacks (Count)
system.cpu.icache.writebacks::total              1105                       # number of writebacks (Count)
system.cpu.icache.demandMshrHits::cpu.inst          543                       # number of demand (read+write) MSHR hits (Count)
system.cpu.icache.demandMshrHits::total           543                       # number of demand (read+write) MSHR hits (Count)
system.cpu.icache.overallMshrHits::cpu.inst          543                       # number of overall MSHR hits (Count)
system.cpu.icache.overallMshrHits::total          543                       # number of overall MSHR hits (Count)
system.cpu.icache.demandMshrMisses::cpu.inst         1619                       # number of demand (read+write) MSHR misses (Count)
system.cpu.icache.demandMshrMisses::total         1619                       # number of demand (read+write) MSHR misses (Count)
system.cpu.icache.overallMshrMisses::cpu.inst         1619                       # number of overall MSHR misses (Count)
system.cpu.icache.overallMshrMisses::total         1619                       # number of overall MSHR misses (Count)
system.cpu.icache.demandMshrMissLatency::cpu.inst    102202000                       # number of demand (read+write) MSHR miss ticks (Tick)
system.cpu.icache.demandMshrMissLatency::total    102202000                       # number of demand (read+write) MSHR miss ticks (Tick)
system.cpu.icache.overallMshrMissLatency::cpu.inst    102202000                       # number of overall MSHR miss ticks (Tick)
system.cpu.icache.overallMshrMissLatency::total    102202000                       # number of overall MSHR miss ticks (Tick)
system.cpu.icache.demandMshrMissRate::cpu.inst     0.000309                       # mshr miss ratio for demand accesses (Ratio)
system.cpu.icache.demandMshrMissRate::total     0.000309                       # mshr miss ratio for demand accesses (Ratio)
system.cpu.icache.overallMshrMissRate::cpu.inst     0.000309                       # mshr miss ratio for overall accesses (Ratio)
system.cpu.icache.overallMshrMissRate::total     0.000309                       # mshr miss ratio for overall accesses (Ratio)
system.cpu.icache.demandAvgMshrMissLatency::cpu.inst 63126.621371                       # average overall mshr miss latency ((Tick/Count))
system.cpu.icache.demandAvgMshrMissLatency::total 63126.621371                       # average overall mshr miss latency ((Tick/Count))
system.cpu.icache.overallAvgMshrMissLatency::cpu.inst 63126.621371                       # average overall mshr miss latency ((Tick/Count))
system.cpu.icache.overallAvgMshrMissLatency::total 63126.621371                       # average overall mshr miss latency ((Tick/Count))
system.cpu.icache.replacements                   1105                       # number of replacements (Count)
system.cpu.icache.ReadReq.hits::cpu.inst      5242331                       # number of ReadReq hits (Count)
system.cpu.icache.ReadReq.hits::total         5242331                       # number of ReadReq hits (Count)
system.cpu.icache.ReadReq.misses::cpu.inst         2162                       # number of ReadReq misses (Count)
system.cpu.icache.ReadReq.misses::total          2162                       # number of ReadReq misses (Count)
system.cpu.icache.ReadReq.missLatency::cpu.inst    129660000                       # number of ReadReq miss ticks (Tick)
system.cpu.icache.ReadReq.missLatency::total    129660000                       # number of ReadReq miss ticks (Tick)
system.cpu.icache.ReadReq.accesses::cpu.inst      5244493                       # number of ReadReq accesses(hits+misses) (Count)
system.cpu.icache.ReadReq.accesses::total      5244493                       # number of ReadReq accesses(hits+misses) (Count)
system.cpu.icache.ReadReq.missRate::cpu.inst     0.000412                       # miss rate for ReadReq accesses (Ratio)
system.cpu.icache.ReadReq.missRate::total     0.000412                       # miss rate for ReadReq accesses (Ratio)
system.cpu.icache.ReadReq.avgMissLatency::cpu.inst 59972.247919                       # average ReadReq miss latency ((Tick/Count))
system.cpu.icache.ReadReq.avgMissLatency::total 59972.247919                       # average ReadReq miss latency ((Tick/Count))
system.cpu.icache.ReadReq.mshrHits::cpu.inst          543                       # number of ReadReq MSHR hits (Count)
system.cpu.icache.ReadReq.mshrHits::total          543                       # number of ReadReq MSHR hits (Count)
system.cpu.icache.ReadReq.mshrMisses::cpu.inst         1619                       # number of ReadReq MSHR misses (Count)
system.cpu.icache.ReadReq.mshrMisses::total         1619                       # number of ReadReq MSHR misses (Count)
system.cpu.icache.ReadReq.mshrMissLatency::cpu.inst    102202000                       # number of ReadReq MSHR miss ticks (Tick)
system.cpu.icache.ReadReq.mshrMissLatency::total    102202000                       # number of ReadReq MSHR miss ticks (Tick)
system.cpu.icache.ReadReq.mshrMissRate::cpu.inst     0.000309                       # mshr miss rate for ReadReq accesses (Ratio)
system.cpu.icache.ReadReq.mshrMissRate::total     0.000309                       # mshr miss rate for ReadReq accesses (Ratio)
system.cpu.icache.ReadReq.avgMshrMissLatency::cpu.inst 63126.621371                       # average ReadReq mshr miss latency ((Tick/Count))
system.cpu.icache.ReadReq.avgMshrMissLatency::total 63126.621371                       # average ReadReq mshr miss latency ((Tick/Count))
system.cpu.icache.power_state.pwrStateResidencyTicks::UNDEFINED  20482292000                       # Cumulative time (in ticks) in various power states (Tick)
system.cpu.icache.tags.tagsInUse           511.366489                       # Average ticks per tags in use ((Tick/Count))
system.cpu.icache.tags.totalRefs              5243950                       # Total number of references to valid blocks. (Count)
system.cpu.icache.tags.sampledRefs               1619                       # Sample count of references to valid blocks. (Count)
system.cpu.icache.tags.avgRefs            3239.005559                       # Average number of references to valid blocks. ((Count/Count))
system.cpu.icache.tags.warmupTick               77000                       # The tick when the warmup percentage was hit. (Tick)
system.cpu.icache.tags.occupancies::cpu.inst   511.366489                       # Average occupied blocks per tick, per requestor ((Count/Tick))
system.cpu.icache.tags.avgOccs::cpu.inst     0.998763                       # Average percentage of cache occupancy ((Ratio/Tick))
system.cpu.icache.tags.avgOccs::total        0.998763                       # Average percentage of cache occupancy ((Ratio/Tick))
system.cpu.icache.tags.occupanciesTaskId::1024          512                       # Occupied blocks per task id (Count)
system.cpu.icache.tags.ageTaskId_1024::4          512                       # Occupied blocks per task id, per block age (Count)
system.cpu.icache.tags.ratioOccsTaskId::1024            1                       # Ratio of occupied blocks and all blocks, per task id (Ratio)
system.cpu.icache.tags.tagAccesses           41957563                       # Number of tag accesses (Count)
system.cpu.icache.tags.dataAccesses          41957563                       # Number of data accesses (Count)
system.cpu.icache.tags.power_state.pwrStateResidencyTicks::UNDEFINED  20482292000                       # Cumulative time (in ticks) in various power states (Tick)
system.cpu.iew.reusedInsts                     122636                       # Number of instructions reused (Cycle)
system.cpu.iew.reusedFloatInsts                   590                       # Number of float instructions reused (Cycle)
system.cpu.iew.reusedIntInsts                  122046                       # Number of int instructions reused (Cycle)
system.cpu.iew.reusedVecInsts                       0                       # Number of vector instructions reused (Cycle)
system.cpu.iew.idleCycles                           0                       # Number of cycles IEW is idle (Cycle)
system.cpu.iew.squashCycles                     34233                       # Number of cycles IEW is squashing (Cycle)
system.cpu.iew.blockCycles                     302014                       # Number of cycles IEW is blocking (Cycle)
system.cpu.iew.unblockCycles                    22713                       # Number of cycles IEW is unblocking (Cycle)
system.cpu.iew.dispatchedInsts               21512443                       # Number of instructions dispatched to IQ (Count)
system.cpu.iew.dispSquashedInsts                  637                       # Number of squashed instructions skipped by dispatch (Count)
system.cpu.iew.dispLoadInsts                   197920                       # Number of dispatched load instructions (Count)
system.cpu.iew.dispStoreInsts                 2566771                       # Number of dispatched store instructions (Count)
system.cpu.iew.dispNonSpecInsts                   330                       # Number of dispatched non-speculative instructions (Count)
system.cpu.iew.iqFullEvents                      1166                       # Number of times the IQ has become full, causing a stall (Count)
system.cpu.iew.lsqFullEvents                    20712                       # Number of times the LSQ has become full, causing a stall (Count)
system.cpu.iew.memOrderViolationEvents            168                       # Number of memory order violations (Count)
system.cpu.iew.predictedTakenIncorrect          37461                       # Number of branches that were predicted taken incorrectly (Count)
system.cpu.iew.predictedNotTakenIncorrect         6885                       # Number of branches that were predicted not taken incorrectly (Count)
system.cpu.iew.branchMispredicts                44346                       # Number of branch mispredicts detected at execute (Count)
system.cpu.iew.instsToCommit                 21251893                       # Cumulative count of insts sent to commit (Count)
system.cpu.iew.writebackCount                21137663                       # Cumulative count of insts written-back (Count)
system.cpu.iew.producerInst                  15627037                       # Number of instructions producing a value (Count)
system.cpu.iew.consumerInst                  22660667                       # Number of instructions consuming a value (Count)
system.cpu.iew.wbRate                        0.515998                       # Insts written-back per cycle ((Count/Cycle))
system.cpu.iew.wbFanout                      0.689611                       # Average fanout of values written-back ((Count/Count))
system.cpu.interrupts.clk_domain.clock           8000                       # Clock period in ticks (Tick)
system.cpu.itb_walker_cache.blockedCycles::no_mshrs            0                       # number of cycles access was blocked (Cycle)
system.cpu.itb_walker_cache.blockedCycles::no_targets            0                       # number of cycles access was blocked (Cycle)
system.cpu.itb_walker_cache.blockedCauses::no_mshrs            0                       # number of times access was blocked (Count)
system.cpu.itb_walker_cache.blockedCauses::no_targets            0                       # number of times access was blocked (Count)
system.cpu.itb_walker_cache.avgBlocked::no_mshrs          nan                       # average number of cycles each access was blocked ((Cycle/Count))
system.cpu.itb_walker_cache.avgBlocked::no_targets          nan                       # average number of cycles each access was blocked ((Cycle/Count))
system.cpu.itb_walker_cache.replacements            0                       # number of replacements (Count)
system.cpu.itb_walker_cache.power_state.pwrStateResidencyTicks::UNDEFINED  20482292000                       # Cumulative time (in ticks) in various power states (Tick)
system.cpu.itb_walker_cache.tags.tagsInUse            0                       # Average ticks per tags in use ((Tick/Count))
system.cpu.itb_walker_cache.tags.totalRefs            0                       # Total number of references to valid blocks. (Count)
system.cpu.itb_walker_cache.tags.sampledRefs            0                       # Sample count of references to valid blocks. (Count)
system.cpu.itb_walker_cache.tags.avgRefs          nan                       # Average number of references to valid blocks. ((Count/Count))
system.cpu.itb_walker_cache.tags.warmupTick            0                       # The tick when the warmup percentage was hit. (Tick)
system.cpu.itb_walker_cache.tags.tagAccesses            0                       # Number of tag accesses (Count)
system.cpu.itb_walker_cache.tags.dataAccesses            0                       # Number of data accesses (Count)
system.cpu.itb_walker_cache.tags.power_state.pwrStateResidencyTicks::UNDEFINED  20482292000                       # Cumulative time (in ticks) in various power states (Tick)
system.cpu.lsq0.forwLoads                       14952                       # Number of loads that had data forwarded from stores (Count)
system.cpu.lsq0.squashedLoads                   67876                       # Number of loads squashed (Count)
system.cpu.lsq0.ignoredResponses                   92                       # Number of memory responses ignored because the instruction is squashed (Count)
system.cpu.lsq0.memOrderViolation                 168                       # Number of memory ordering violations (Count)
system.cpu.lsq0.squashedStores                 163854                       # Number of stores squashed (Count)
system.cpu.lsq0.rescheduledLoads                   35                       # Number of loads that were rescheduled (Count)
system.cpu.lsq0.blockedByCache                    423                       # Number of times an access to memory failed due to the cache being blocked (Count)
system.cpu.lsq0.loadToUse::samples             130044                       # Distribution of cycle latency between the first time a load is issued and its completion (Unspecified)
system.cpu.lsq0.loadToUse::mean             12.986382                       # Distribution of cycle latency between the first time a load is issued and its completion (Unspecified)
system.cpu.lsq0.loadToUse::stdev            39.671998                       # Distribution of cycle latency between the first time a load is issued and its completion (Unspecified)
system.cpu.lsq0.loadToUse::0-9                 119192     91.66%     91.66% # Distribution of cycle latency between the first time a load is issued and its completion (Unspecified)
system.cpu.lsq0.loadToUse::10-19                  393      0.30%     91.96% # Distribution of cycle latency between the first time a load is issued and its completion (Unspecified)
system.cpu.lsq0.loadToUse::20-29                  255      0.20%     92.15% # Distribution of cycle latency between the first time a load is issued and its completion (Unspecified)
system.cpu.lsq0.loadToUse::30-39                  202      0.16%     92.31% # Distribution of cycle latency between the first time a load is issued and its completion (Unspecified)
system.cpu.lsq0.loadToUse::40-49                  156      0.12%     92.43% # Distribution of cycle latency between the first time a load is issued and its completion (Unspecified)
system.cpu.lsq0.loadToUse::50-59                  230      0.18%     92.61% # Distribution of cycle latency between the first time a load is issued and its completion (Unspecified)
system.cpu.lsq0.loadToUse::60-69                  279      0.21%     92.82% # Distribution of cycle latency between the first time a load is issued and its completion (Unspecified)
system.cpu.lsq0.loadToUse::70-79                  231      0.18%     93.00% # Distribution of cycle latency between the first time a load is issued and its completion (Unspecified)
[...]
system.mem_ctrls.dram.bwTotal::writebacks    917194228                       # Total bandwidth to/from this memory ((Byte/Second))
system.mem_ctrls.dram.bwTotal::cpu.inst       5052560                       # Total bandwidth to/from this memory ((Byte/Second))
system.mem_ctrls.dram.bwTotal::cpu.data     932036317                       # Total bandwidth to/from this memory ((Byte/Second))
system.mem_ctrls.dram.bwTotal::total       1854283105                       # Total bandwidth to/from this memory ((Byte/Second))
system.mem_ctrls.dram.readBursts               299862                       # Number of DRAM read bursts (Count)
system.mem_ctrls.dram.writeBursts              294615                       # Number of DRAM write bursts (Count)
system.mem_ctrls.dram.perBankRdBursts::0        18734                       # Per bank write bursts (Count)
system.mem_ctrls.dram.perBankRdBursts::1        18754                       # Per bank write bursts (Count)
system.mem_ctrls.dram.perBankRdBursts::2        18663                       # Per bank write bursts (Count)
system.mem_ctrls.dram.perBankRdBursts::3        18817                       # Per bank write bursts (Count)
system.mem_ctrls.dram.perBankRdBursts::4        18849                       # Per bank write bursts (Count)
system.mem_ctrls.dram.perBankRdBursts::5        18659                       # Per bank write bursts (Count)
system.mem_ctrls.dram.perBankRdBursts::6        18529                       # Per bank write bursts (Count)
system.mem_ctrls.dram.perBankRdBursts::7        18613                       # Per bank write bursts (Count)
system.mem_ctrls.dram.perBankRdBursts::8        18667                       # Per bank write bursts (Count)
system.mem_ctrls.dram.perBankRdBursts::9        18871                       # Per bank write bursts (Count)
system.mem_ctrls.dram.perBankRdBursts::10        18861                       # Per bank write bursts (Count)
system.mem_ctrls.dram.perBankRdBursts::11        18653                       # Per bank write bursts (Count)
system.mem_ctrls.dram.perBankRdBursts::12        18838                       # Per bank write bursts (Count)
system.mem_ctrls.dram.perBankRdBursts::13        18775                       # Per bank write bursts (Count)
system.mem_ctrls.dram.perBankRdBursts::14        18655                       # Per bank write bursts (Count)
system.mem_ctrls.dram.perBankRdBursts::15        18924                       # Per bank write bursts (Count)
system.mem_ctrls.dram.perBankWrBursts::0        18472                       # Per bank write bursts (Count)
system.mem_ctrls.dram.perBankWrBursts::1        18589                       # Per bank write bursts (Count)
system.mem_ctrls.dram.perBankWrBursts::2        18494                       # Per bank write bursts (Count)
system.mem_ctrls.dram.perBankWrBursts::3        18461                       # Per bank write bursts (Count)
system.mem_ctrls.dram.perBankWrBursts::4        18417                       # Per bank write bursts (Count)
system.mem_ctrls.dram.perBankWrBursts::5        18411                       # Per bank write bursts (Count)
system.mem_ctrls.dram.perBankWrBursts::6        18347                       # Per bank write bursts (Count)
system.mem_ctrls.dram.perBankWrBursts::7        18536                       # Per bank write bursts (Count)
system.mem_ctrls.dram.perBankWrBursts::8        18416                       # Per bank write bursts (Count)
system.mem_ctrls.dram.perBankWrBursts::9        18428                       # Per bank write bursts (Count)
system.mem_ctrls.dram.perBankWrBursts::10        18343                       # Per bank write bursts (Count)
system.mem_ctrls.dram.perBankWrBursts::11        18310                       # Per bank write bursts (Count)
system.mem_ctrls.dram.perBankWrBursts::12        18305                       # Per bank write bursts (Count)
system.mem_ctrls.dram.perBankWrBursts::13        18239                       # Per bank write bursts (Count)
system.mem_ctrls.dram.perBankWrBursts::14        18417                       # Per bank write bursts (Count)
system.mem_ctrls.dram.perBankWrBursts::15        18430                       # Per bank write bursts (Count)
system.mem_ctrls.dram.totQLat              3026605000                       # Total ticks spent queuing (Tick)
system.mem_ctrls.dram.totBusLat            1499310000                       # Total ticks spent in databus transfers (Tick)
system.mem_ctrls.dram.totMemAccLat         8649017500                       # Total ticks spent from burst creation until serviced by the DRAM (Tick)
system.mem_ctrls.dram.avgQLat                10093.33                       # Average queueing delay per DRAM burst ((Tick/Count))
system.mem_ctrls.dram.avgBusLat               5000.00                       # Average bus latency per DRAM burst ((Tick/Count))
system.mem_ctrls.dram.avgMemAccLat           28843.33                       # Average memory access latency per DRAM burst ((Tick/Count))
system.mem_ctrls.dram.readRowHits              277968                       # Number of row buffer hits during reads (Count)
system.mem_ctrls.dram.writeRowHits             273369                       # Number of row buffer hits during writes (Count)
system.mem_ctrls.dram.readRowHitRate            92.70                       # Row buffer hit rate for reads (Ratio)
system.mem_ctrls.dram.writeRowHitRate           92.79                       # Row buffer hit rate for writes (Ratio)
system.mem_ctrls.dram.bytesPerActivate::samples        43138                       # Bytes accessed per row activation (Byte)
system.mem_ctrls.dram.bytesPerActivate::mean   881.948723                       # Bytes accessed per row activation (Byte)
system.mem_ctrls.dram.bytesPerActivate::gmean   784.433076                       # Bytes accessed per row activation (Byte)
system.mem_ctrls.dram.bytesPerActivate::stdev   280.497806                       # Bytes accessed per row activation (Byte)
system.mem_ctrls.dram.bytesPerActivate::0-127         1230      2.85%      2.85% # Bytes accessed per row activation (Byte)
system.mem_ctrls.dram.bytesPerActivate::128-255         1275      2.96%      5.81% # Bytes accessed per row activation (Byte)
system.mem_ctrls.dram.bytesPerActivate::256-383         1982      4.59%     10.40% # Bytes accessed per row activation (Byte)
system.mem_ctrls.dram.bytesPerActivate::384-511         1577      3.66%     14.06% # Bytes accessed per row activation (Byte)
system.mem_ctrls.dram.bytesPerActivate::512-639         1020      2.36%     16.42% # Bytes accessed per row activation (Byte)
system.mem_ctrls.dram.bytesPerActivate::640-767         1764      4.09%     20.51% # Bytes accessed per row activation (Byte)
system.mem_ctrls.dram.bytesPerActivate::768-895         1196      2.77%     23.28% # Bytes accessed per row activation (Byte)
system.mem_ctrls.dram.bytesPerActivate::896-1023          535      1.24%     24.52% # Bytes accessed per row activation (Byte)
system.mem_ctrls.dram.bytesPerActivate::1024-1151        32559     75.48%    100.00% # Bytes accessed per row activation (Byte)
system.mem_ctrls.dram.bytesPerActivate::total        43138                       # Bytes accessed per row activation (Byte)
system.mem_ctrls.dram.bytesRead              19191168                       # Total bytes read (Byte)
system.mem_ctrls.dram.bytesWritten           18855360                       # Total bytes written (Byte)
system.mem_ctrls.dram.avgRdBW              936.963891                       # Average DRAM read bandwidth in MiBytes/s ((Byte/Second))
system.mem_ctrls.dram.avgWrBW              920.568850                       # Average DRAM write bandwidth in MiBytes/s ((Byte/Second))
system.mem_ctrls.dram.peakBW                 12800.00                       # Theoretical peak bandwidth in MiByte/s ((Byte/Second))
system.mem_ctrls.dram.busUtil                   14.51                       # Data bus utilization in percentage (Ratio)
system.mem_ctrls.dram.busUtilRead                7.32                       # Data bus utilization in percentage for reads (Ratio)
system.mem_ctrls.dram.busUtilWrite               7.19                       # Data bus utilization in percentage for writes (Ratio)
system.mem_ctrls.dram.pageHitRate               92.74                       # Row buffer hit rate, read and write combined (Ratio)
system.mem_ctrls.dram.power_state.pwrStateResidencyTicks::UNDEFINED  20482292000                       # Cumulative time (in ticks) in various power states (Tick)
system.mem_ctrls.dram.rank0.actEnergy       153774180                       # Energy for activate commands per rank (pJ) (Joule)
system.mem_ctrls.dram.rank0.preEnergy        81732915                       # Energy for precharge commands per rank (pJ) (Joule)
system.mem_ctrls.dram.rank0.readEnergy     1068272520                       # Energy for read commands per rank (pJ) (Joule)
system.mem_ctrls.dram.rank0.writeEnergy     771134940                       # Energy for write commands per rank (pJ) (Joule)
system.mem_ctrls.dram.rank0.refreshEnergy 1616503200.000000                       # Energy for refresh commands per rank (pJ) (Joule)
system.mem_ctrls.dram.rank0.actBackEnergy   6028245900                       # Energy for active background per rank (pJ) (Joule)
system.mem_ctrls.dram.rank0.preBackEnergy   2788782720                       # Energy for precharge background per rank (pJ) (Joule)
system.mem_ctrls.dram.rank0.actPowerDownEnergy            0                       # Energy for active power-down per rank (pJ) (Joule)
system.mem_ctrls.dram.rank0.prePowerDownEnergy            0                       # Energy for precharge power-down per rank (pJ) (Joule)
system.mem_ctrls.dram.rank0.selfRefreshEnergy            0                       # Energy for self refresh per rank (pJ) (Joule)
system.mem_ctrls.dram.rank0.totalEnergy   12508446375                       # Total energy per rank (pJ) (Joule)
system.mem_ctrls.dram.rank0.averagePower   610.695638                       # Core power per rank (mW) (Watt)
system.mem_ctrls.dram.rank0.totalIdleTime            0                       # Total Idle time Per DRAM Rank (Tick)
system.mem_ctrls.dram.rank0.pwrStateTime::IDLE   7088662000                       # Time in different power states (Tick)
system.mem_ctrls.dram.rank0.pwrStateTime::REF    683800000                       # Time in different power states (Tick)
system.mem_ctrls.dram.rank0.pwrStateTime::SREF            0                       # Time in different power states (Tick)
system.mem_ctrls.dram.rank0.pwrStateTime::PRE_PDN            0                       # Time in different power states (Tick)
system.mem_ctrls.dram.rank0.pwrStateTime::ACT  12709830000                       # Time in different power states (Tick)
system.mem_ctrls.dram.rank0.pwrStateTime::ACT_PDN            0                       # Time in different power states (Tick)
system.mem_ctrls.dram.rank1.actEnergy       154245420                       # Energy for activate commands per rank (pJ) (Joule)
system.mem_ctrls.dram.rank1.preEnergy        81975795                       # Energy for precharge commands per rank (pJ) (Joule)
system.mem_ctrls.dram.rank1.readEnergy     1072742160                       # Energy for read commands per rank (pJ) (Joule)
system.mem_ctrls.dram.rank1.writeEnergy     766755360                       # Energy for write commands per rank (pJ) (Joule)
system.mem_ctrls.dram.rank1.refreshEnergy 1616503200.000000                       # Energy for refresh commands per rank (pJ) (Joule)
system.mem_ctrls.dram.rank1.actBackEnergy   6031716630                       # Energy for active background per rank (pJ) (Joule)
system.mem_ctrls.dram.rank1.preBackEnergy   2785860000                       # Energy for precharge background per rank (pJ) (Joule)
system.mem_ctrls.dram.rank1.actPowerDownEnergy            0                       # Energy for active power-down per rank (pJ) (Joule)
system.mem_ctrls.dram.rank1.prePowerDownEnergy            0                       # Energy for precharge power-down per rank (pJ) (Joule)
system.mem_ctrls.dram.rank1.selfRefreshEnergy            0                       # Energy for self refresh per rank (pJ) (Joule)
system.mem_ctrls.dram.rank1.totalEnergy   12509798565                       # Total energy per rank (pJ) (Joule)
system.mem_ctrls.dram.rank1.averagePower   610.761655                       # Core power per rank (mW) (Watt)
system.mem_ctrls.dram.rank1.totalIdleTime            0                       # Total Idle time Per DRAM Rank (Tick)
system.mem_ctrls.dram.rank1.pwrStateTime::IDLE   7080373750                       # Time in different power states (Tick)
system.mem_ctrls.dram.rank1.pwrStateTime::REF    683800000                       # Time in different power states (Tick)
system.mem_ctrls.dram.rank1.pwrStateTime::SREF            0                       # Time in different power states (Tick)
system.mem_ctrls.dram.rank1.pwrStateTime::PRE_PDN            0                       # Time in different power states (Tick)
system.mem_ctrls.dram.rank1.pwrStateTime::ACT  12718118250                       # Time in different power states (Tick)
system.mem_ctrls.dram.rank1.pwrStateTime::ACT_PDN            0                       # Time in different power states (Tick)
system.mem_ctrls.power_state.pwrStateResidencyTicks::UNDEFINED  20482292000                       # Cumulative time (in ticks) in various power states (Tick)
system.membus.transDist::ReadResp                6142                       # Transaction distribution (Count)
system.membus.transDist::WritebackDirty        293535                       # Transaction distribution (Count)
system.membus.transDist::WritebackClean          1105                       # Transaction distribution (Count)
system.membus.transDist::CleanEvict              4238                       # Transaction distribution (Count)
system.membus.transDist::UpgradeReq                 2                       # Transaction distribution (Count)
system.membus.transDist::ReadExReq             293763                       # Transaction distribution (Count)
system.membus.transDist::ReadExResp            293762                       # Transaction distribution (Count)
system.membus.transDist::ReadCleanReq            1619                       # Transaction distribution (Count)
system.membus.transDist::ReadSharedReq           4523                       # Transaction distribution (Count)
system.membus.pktCount_system.cpu.icache.mem_side_port::system.mem_ctrls.port         4341                       # Packet count per connected requestor and responder (Count)
system.membus.pktCount_system.cpu.icache.mem_side_port::total         4341                       # Packet count per connected requestor and responder (Count)
system.membus.pktCount_system.cpu.dcache.mem_side_port::system.mem_ctrls.port       894346                       # Packet count per connected requestor and responder (Count)
system.membus.pktCount_system.cpu.dcache.mem_side_port::total       894346                       # Packet count per connected requestor and responder (Count)
system.membus.pktCount::total                  898687                       # Packet count per connected requestor and responder (Count)
system.membus.pktSize_system.cpu.icache.mem_side_port::system.mem_ctrls.port       174208                       # Cumulative packet size per connected requestor and responder (Byte)
system.membus.pktSize_system.cpu.icache.mem_side_port::total       174208                       # Cumulative packet size per connected requestor and responder (Byte)
system.membus.pktSize_system.cpu.dcache.mem_side_port::system.mem_ctrls.port     37876480                       # Cumulative packet size per connected requestor and responder (Byte)
system.membus.pktSize_system.cpu.dcache.mem_side_port::total     37876480                       # Cumulative packet size per connected requestor and responder (Byte)
system.membus.pktSize::total                 38050688                       # Cumulative packet size per connected requestor and responder (Byte)
system.membus.snoops                                2                       # Total snoops (Count)
system.membus.snoopTraffic                        128                       # Total snoop traffic (Byte)
system.membus.snoopFanout::samples             299907                       # Request fanout histogram (Count)
system.membus.snoopFanout::mean              0.000037                       # Request fanout histogram (Count)
system.membus.snoopFanout::stdev             0.006056                       # Request fanout histogram (Count)
system.membus.snoopFanout::underflows               0      0.00%      0.00% # Request fanout histogram (Count)
system.membus.snoopFanout::0                   299896    100.00%    100.00% # Request fanout histogram (Count)
system.membus.snoopFanout::1                       11      0.00%    100.00% # Request fanout histogram (Count)
system.membus.snoopFanout::2                        0      0.00%    100.00% # Request fanout histogram (Count)
system.membus.snoopFanout::3                        0      0.00%    100.00% # Request fanout histogram (Count)
system.membus.snoopFanout::4                        0      0.00%    100.00% # Request fanout histogram (Count)
system.membus.snoopFanout::overflows                0      0.00%    100.00% # Request fanout histogram (Count)
system.membus.snoopFanout::min_value                0                       # Request fanout histogram (Count)
system.membus.snoopFanout::max_value                1                       # Request fanout histogram (Count)
system.membus.snoopFanout::total               299907                       # Request fanout histogram (Count)
system.membus.power_state.pwrStateResidencyTicks::UNDEFINED  20482292000                       # Cumulative time (in ticks) in various power states (Tick)
system.membus.reqLayer2.occupancy          1780877000                       # Layer occupancy (ticks) (Tick)
system.membus.reqLayer2.utilization               0.1                       # Layer utilization (Ratio)
system.membus.respLayer1.occupancy            8610000                       # Layer occupancy (ticks) (Tick)
system.membus.respLayer1.utilization              0.0                       # Layer utilization (Ratio)
system.membus.respLayer2.occupancy         1571909000                       # Layer occupancy (ticks) (Tick)
system.membus.respLayer2.utilization              0.1                       # Layer utilization (Ratio)
system.membus.snoop_filter.totRequests         598785                       # Total number of requests made to the snoop filter. (Count)
system.membus.snoop_filter.hitSingleRequests       298878                       # Number of requests hitting in the snoop filter with a single holder of the requested data. (Count)
system.membus.snoop_filter.hitMultiRequests           11                       # Number of requests hitting in the snoop filter with multiple (>1) holders of the requested data. (Count)
system.membus.snoop_filter.totSnoops                0                       # Total number of snoops made to the snoop filter. (Count)
system.membus.snoop_filter.hitSingleSnoops            0                       # Number of snoops hitting in the snoop filter with a single holder of the requested data. (Count)
system.membus.snoop_filter.hitMultiSnoops            0                       # Number of snoops hitting in the snoop filter with multiple (>1) holders of the requested data. (Count)
system.voltage_domain.voltage                       1                       # Voltage in Volts (Volt)
system.workload.inst.arm                            0                       # number of arm instructions executed (Count)
system.workload.inst.quiesce                        0                       # number of quiesce instructions executed (Count)

---------- End Simulation Statistics   ----------
