
---------- Begin Simulation Statistics ----------
simSeconds                                   0.002715                       # Number of seconds simulated (Second)
simTicks                                   2715311500                       # Number of ticks simulated (Tick)
finalTick                                  2715311500                       # Number of ticks from beginning of simulation (restored from checkpoints and never reset) (Tick)
simFreq                                  1000000000000                       # The number of ticks per simulated second ((Tick/Second))
hostSeconds                                    151.11                       # Real time elapsed on the host (Second)
hostTickRate                                 17968709                       # The number of ticks simulated per host second (ticks/s) ((Tick/Second))
hostMemory                                    8716816                       # Number of bytes of host memory used (Byte)
simInsts                                     10000002                       # Number of instructions simulated (Count)
simOps                                       18411886                       # Number of ops (including micro ops) simulated (Count)
hostInstRate                                    66175                       # Simulator instruction rate (inst/s) ((Count/Second))
hostOpRate                                     121841                       # Simulator op (including micro ops) rate (op/s) ((Count/Second))
system.clk_domain.clock                          1000                       # Clock period in ticks (Tick)
system.cpu.numCycles                          5430624                       # Number of cpu cycles simulated (Cycle)
system.cpu.numWorkItemsStarted                      0                       # Number of work items this cpu started (Count)
system.cpu.numWorkItemsCompleted                    0                       # Number of work items this cpu completed (Count)
system.cpu.instsAdded                        18566744                       # Number of instructions added to the IQ (excludes non-spec) (Count)
system.cpu.nonSpecInstsAdded                       61                       # Number of non-speculative instructions added to the IQ (Count)
system.cpu.instsIssued                       18517665                       # Number of instructions issued (Count)
system.cpu.squashedInstsIssued                    348                       # Number of squashed instructions issued (Count)
system.cpu.squashedInstsExamined               154834                       # Number of squashed instructions iterated over during squash; mainly for profiling (Count)
system.cpu.squashedOperandsExamined            336572                       # Number of squashed operands that are examined and possibly removed from graph (Count)
system.cpu.squashedNonSpecRemoved                  25                       # Number of squashed non-spec instructions that were removed (Count)
system.cpu.numIssuedDist::samples             5375893                       # Number of insts issued each cycle (Count)
system.cpu.numIssuedDist::mean               3.444575                       # Number of insts issued each cycle (Count)
system.cpu.numIssuedDist::stdev              2.129319                       # Number of insts issued each cycle (Count)
system.cpu.numIssuedDist::underflows                0      0.00%      0.00% # Number of insts issued each cycle (Count)
system.cpu.numIssuedDist::0                    454545      8.46%      8.46% # Number of insts issued each cycle (Count)
system.cpu.numIssuedDist::1                    711027     13.23%     21.68% # Number of insts issued each cycle (Count)
system.cpu.numIssuedDist::2                    775800     14.43%     36.11% # Number of insts issued each cycle (Count)
system.cpu.numIssuedDist::3                    844509     15.71%     51.82% # Number of insts issued each cycle (Count)
system.cpu.numIssuedDist::4                    884438     16.45%     68.27% # Number of insts issued each cycle (Count)
system.cpu.numIssuedDist::5                    755023     14.04%     82.32% # Number of insts issued each cycle (Count)
system.cpu.numIssuedDist::6                    409783      7.62%     89.94% # Number of insts issued each cycle (Count)
system.cpu.numIssuedDist::7                    376198      7.00%     96.94% # Number of insts issued each cycle (Count)
system.cpu.numIssuedDist::8                    164570      3.06%    100.00% # Number of insts issued each cycle (Count)
system.cpu.numIssuedDist::overflows                 0      0.00%    100.00% # Number of insts issued each cycle (Count)
system.cpu.numIssuedDist::min_value                 0                       # Number of insts issued each cycle (Count)
system.cpu.numIssuedDist::max_value                 8                       # Number of insts issued each cycle (Count)
system.cpu.numIssuedDist::total               5375893                       # Number of insts issued each cycle (Count)
system.cpu.statFuBusy::No_OpClass                   0      0.00%      0.00% # attempts to use FU when none available (Count)
system.cpu.statFuBusy::IntAlu                  182682     80.01%     80.01% # attempts to use FU when none available (Count)
system.cpu.statFuBusy::IntMult                      0      0.00%     80.01% # attempts to use FU when none available (Count)
system.cpu.statFuBusy::IntDiv                       0      0.00%     80.01% # attempts to use FU when none available (Count)
system.cpu.statFuBusy::FloatAdd                     0      0.00%     80.01% # attempts to use FU when none available (Count)
system.cpu.statFuBusy::FloatCmp                     0      0.00%     80.01% # attempts to use FU when none available (Count)
system.cpu.statFuBusy::FloatCvt                     0      0.00%     80.01% # attempts to use FU when none available (Count)
system.cpu.statFuBusy::FloatMult                    0      0.00%     80.01% # attempts to use FU when none available (Count)
system.cpu.statFuBusy::FloatMultAcc                 0      0.00%     80.01% # attempts to use FU when none available (Count)
system.cpu.statFuBusy::FloatDiv                     0      0.00%     80.01% # attempts to use FU when none available (Count)
system.cpu.statFuBusy::FloatMisc                    0      0.00%     80.01% # attempts to use FU when none available (Count)
system.cpu.statFuBusy::FloatSqrt                    0      0.00%     80.01% # attempts to use FU when none available (Count)
system.cpu.statFuBusy::SimdAdd                      0      0.00%     80.01% # attempts to use FU when none available (Count)
system.cpu.statFuBusy::SimdAddAcc                   0      0.00%     80.01% # attempts to use FU when none available (Count)
system.cpu.statFuBusy::SimdAlu                      0      0.00%     80.01% # attempts to use FU when none available (Count)
system.cpu.statFuBusy::SimdCmp                      0      0.00%     80.01% # attempts to use FU when none available (Count)
system.cpu.statFuBusy::SimdCvt                      9      0.00%     80.01% # attempts to use FU when none available (Count)
system.cpu.statFuBusy::SimdMisc                     5      0.00%     80.02% # attempts to use FU when none available (Count)
system.cpu.statFuBusy::SimdMult                     0      0.00%     80.02% # attempts to use FU when none available (Count)
system.cpu.statFuBusy::SimdMultAcc                  0      0.00%     80.02% # attempts to use FU when none available (Count)
system.cpu.statFuBusy::SimdShift                    0      0.00%     80.02% # attempts to use FU when none available (Count)
system.cpu.statFuBusy::SimdShiftAcc                 0      0.00%     80.02% # attempts to use FU when none available (Count)
system.cpu.statFuBusy::SimdDiv                      0      0.00%     80.02% # attempts to use FU when none available (Count)
system.cpu.statFuBusy::SimdSqrt                     0      0.00%     80.02% # attempts to use FU when none available (Count)
system.cpu.statFuBusy::SimdFloatAdd                 0      0.00%     80.02% # attempts to use FU when none available (Count)
system.cpu.statFuBusy::SimdFloatAlu                 0      0.00%     80.02% # attempts to use FU when none available (Count)
system.cpu.statFuBusy::SimdFloatCmp                 0      0.00%     80.02% # attempts to use FU when none available (Count)
system.cpu.statFuBusy::SimdFloatCvt                 0      0.00%     80.02% # attempts to use FU when none available (Count)
system.cpu.statFuBusy::SimdFloatDiv                 0      0.00%     80.02% # attempts to use FU when none available (Count)
system.cpu.statFuBusy::SimdFloatMisc                0      0.00%     80.02% # attempts to use FU when none available (Count)
system.cpu.statFuBusy::SimdFloatMult                0      0.00%     80.02% # attempts to use FU when none available (Count)
system.cpu.statFuBusy::SimdFloatMultAcc             0      0.00%     80.02% # attempts to use FU when none available (Count)
system.cpu.statFuBusy::SimdFloatSqrt                0      0.00%     80.02% # attempts to use FU when none available (Count)
system.cpu.statFuBusy::SimdReduceAdd                0      0.00%     80.02% # attempts to use FU when none available (Count)
system.cpu.statFuBusy::SimdReduceAlu                0      0.00%     80.02% # attempts to use FU when none available (Count)
system.cpu.statFuBusy::SimdReduceCmp                0      0.00%     80.02% # attempts to use FU when none available (Count)
system.cpu.statFuBusy::SimdFloatReduceAdd            0      0.00%     80.02% # attempts to use FU when none available (Count)
system.cpu.statFuBusy::SimdFloatReduceCmp            0      0.00%     80.02% # attempts to use FU when none available (Count)
system.cpu.statFuBusy::SimdAes                      0      0.00%     80.02% # attempts to use FU when none available (Count)
system.cpu.statFuBusy::SimdAesMix                   0      0.00%     80.02% # attempts to use FU when none available (Count)
system.cpu.statFuBusy::SimdSha1Hash                 0      0.00%     80.02% # attempts to use FU when none available (Count)
system.cpu.statFuBusy::SimdSha1Hash2                0      0.00%     80.02% # attempts to use FU when none available (Count)
system.cpu.statFuBusy::SimdSha256Hash               0      0.00%     80.02% # attempts to use FU when none available (Count)
system.cpu.statFuBusy::SimdSha256Hash2              0      0.00%     80.02% # attempts to use FU when none available (Count)
system.cpu.statFuBusy::SimdShaSigma2                0      0.00%     80.02% # attempts to use FU when none available (Count)
system.cpu.statFuBusy::SimdShaSigma3                0      0.00%     80.02% # attempts to use FU when none available (Count)
system.cpu.statFuBusy::SimdPredAlu                  0      0.00%     80.02% # attempts to use FU when none available (Count)
system.cpu.statFuBusy::MemRead                  18499      8.10%     88.12% # attempts to use FU when none available (Count)
system.cpu.statFuBusy::MemWrite                  7286      3.19%     91.31% # attempts to use FU when none available (Count)
system.cpu.statFuBusy::FloatMemRead                16      0.01%     91.32% # attempts to use FU when none available (Count)
system.cpu.statFuBusy::FloatMemWrite            19830      8.68%    100.00% # attempts to use FU when none available (Count)
system.cpu.statFuBusy::IprAccess                    0      0.00%    100.00% # attempts to use FU when none available (Count)
system.cpu.statFuBusy::InstPrefetch                 0      0.00%    100.00% # attempts to use FU when none available (Count)
system.cpu.statIssuedInstType_0::No_OpClass        48223      0.26%      0.26% # Number of instructions issued per FU type, per thread (Count)
system.cpu.statIssuedInstType_0::IntAlu      13959868     75.39%     75.65% # Number of instructions issued per FU type, per thread (Count)
system.cpu.statIssuedInstType_0::IntMult        73172      0.40%     76.04% # Number of instructions issued per FU type, per thread (Count)
system.cpu.statIssuedInstType_0::IntDiv          3377      0.02%     76.06% # Number of instructions issued per FU type, per thread (Count)
system.cpu.statIssuedInstType_0::FloatAdd        19821      0.11%     76.17% # Number of instructions issued per FU type, per thread (Count)
system.cpu.statIssuedInstType_0::FloatCmp            0      0.00%     76.17% # Number of instructions issued per FU type, per thread (Count)
system.cpu.statIssuedInstType_0::FloatCvt           64      0.00%     76.17% # Number of instructions issued per FU type, per thread (Count)
system.cpu.statIssuedInstType_0::FloatMult            0      0.00%     76.17% # Number of instructions issued per FU type, per thread (Count)
system.cpu.statIssuedInstType_0::FloatMultAcc            0      0.00%     76.17% # Number of instructions issued per FU type, per thread (Count)
system.cpu.statIssuedInstType_0::FloatDiv            0      0.00%     76.17% # Number of instructions issued per FU type, per thread (Count)
system.cpu.statIssuedInstType_0::FloatMisc            0      0.00%     76.17% # Number of instructions issued per FU type, per thread (Count)
system.cpu.statIssuedInstType_0::FloatSqrt            0      0.00%     76.17% # Number of instructions issued per FU type, per thread (Count)
system.cpu.statIssuedInstType_0::SimdAdd            0      0.00%     76.17% # Number of instructions issued per FU type, per thread (Count)
system.cpu.statIssuedInstType_0::SimdAddAcc            0      0.00%     76.17% # Number of instructions issued per FU type, per thread (Count)
system.cpu.statIssuedInstType_0::SimdAlu       158337      0.86%     77.02% # Number of instructions issued per FU type, per thread (Count)
system.cpu.statIssuedInstType_0::SimdCmp            0      0.00%     77.02% # Number of instructions issued per FU type, per thread (Count)
system.cpu.statIssuedInstType_0::SimdCvt        79178      0.43%     77.45% # Number of instructions issued per FU type, per thread (Count)
system.cpu.statIssuedInstType_0::SimdMisc       290062      1.57%     79.02% # Number of instructions issued per FU type, per thread (Count)
system.cpu.statIssuedInstType_0::SimdMult            0      0.00%     79.02% # Number of instructions issued per FU type, per thread (Count)
system.cpu.statIssuedInstType_0::SimdMultAcc            0      0.00%     79.02% # Number of instructions issued per FU type, per thread (Count)
system.cpu.statIssuedInstType_0::SimdShift            0      0.00%     79.02% # Number of instructions issued per FU type, per thread (Count)
system.cpu.statIssuedInstType_0::SimdShiftAcc            0      0.00%     79.02% # Number of instructions issued per FU type, per thread (Count)
system.cpu.statIssuedInstType_0::SimdDiv            0      0.00%     79.02% # Number of instructions issued per FU type, per thread (Count)
system.cpu.statIssuedInstType_0::SimdSqrt            0      0.00%     79.02% # Number of instructions issued per FU type, per thread (Count)
system.cpu.statIssuedInstType_0::SimdFloatAdd            0      0.00%     79.02% # Number of instructions issued per FU type, per thread (Count)
system.cpu.statIssuedInstType_0::SimdFloatAlu            0      0.00%     79.02% # Number of instructions issued per FU type, per thread (Count)
system.cpu.statIssuedInstType_0::SimdFloatCmp            0      0.00%     79.02% # Number of instructions issued per FU type, per thread (Count)
system.cpu.statIssuedInstType_0::SimdFloatCvt        65886      0.36%     79.37% # Number of instructions issued per FU type, per thread (Count)
system.cpu.statIssuedInstType_0::SimdFloatDiv            0      0.00%     79.37% # Number of instructions issued per FU type, per thread (Count)
system.cpu.statIssuedInstType_0::SimdFloatMisc            0      0.00%     79.37% # Number of instructions issued per FU type, per thread (Count)
system.cpu.statIssuedInstType_0::SimdFloatMult        65886      0.36%     79.73% # Number of instructions issued per FU type, per thread (Count)
system.cpu.statIssuedInstType_0::SimdFloatMultAcc            0      0.00%     79.73% # Number of instructions issued per FU type, per thread (Count)
system.cpu.statIssuedInstType_0::SimdFloatSqrt            0      0.00%     79.73% # Number of instructions issued per FU type, per thread (Count)
system.cpu.statIssuedInstType_0::SimdReduceAdd            0      0.00%     79.73% # Number of instructions issued per FU type, per thread (Count)
system.cpu.statIssuedInstType_0::SimdReduceAlu            0      0.00%     79.73% # Number of instructions issued per FU type, per thread (Count)
system.cpu.statIssuedInstType_0::SimdReduceCmp            0      0.00%     79.73% # Number of instructions issued per FU type, per thread (Count)
system.cpu.statIssuedInstType_0::SimdFloatReduceAdd            0      0.00%     79.73% # Number of instructions issued per FU type, per thread (Count)
system.cpu.statIssuedInstType_0::SimdFloatReduceCmp            0      0.00%     79.73% # Number of instructions issued per FU type, per thread (Count)
system.cpu.statIssuedInstType_0::SimdAes            0      0.00%     79.73% # Number of instructions issued per FU type, per thread (Count)
system.cpu.statIssuedInstType_0::SimdAesMix            0      0.00%     79.73% # Number of instructions issued per FU type, per thread (Count)
system.cpu.statIssuedInstType_0::SimdSha1Hash            0      0.00%     79.73% # Number of instructions issued per FU type, per thread (Count)
system.cpu.statIssuedInstType_0::SimdSha1Hash2            0      0.00%     79.73% # Number of instructions issued per FU type, per thread (Count)
system.cpu.statIssuedInstType_0::SimdSha256Hash            0      0.00%     79.73% # Number of instructions issued per FU type, per thread (Count)
system.cpu.statIssuedInstType_0::SimdSha256Hash2            0      0.00%     79.73% # Number of instructions issued per FU type, per thread (Count)
system.cpu.statIssuedInstType_0::SimdShaSigma2            0      0.00%     79.73% # Number of instructions issued per FU type, per thread (Count)
system.cpu.statIssuedInstType_0::SimdShaSigma3            0      0.00%     79.73% # Number of instructions issued per FU type, per thread (Count)
system.cpu.statIssuedInstType_0::SimdPredAlu            0      0.00%     79.73% # Number of instructions issued per FU type, per thread (Count)
system.cpu.statIssuedInstType_0::MemRead      1990196     10.75%     90.48% # Number of instructions issued per FU type, per thread (Count)
system.cpu.statIssuedInstType_0::MemWrite      1552253      8.38%     98.86% # Number of instructions issued per FU type, per thread (Count)
system.cpu.statIssuedInstType_0::FloatMemRead       105666      0.57%     99.43% # Number of instructions issued per FU type, per thread (Count)
system.cpu.statIssuedInstType_0::FloatMemWrite       105676      0.57%    100.00% # Number of instructions issued per FU type, per thread (Count)
system.cpu.statIssuedInstType_0::IprAccess            0      0.00%    100.00% # Number of instructions issued per FU type, per thread (Count)
system.cpu.statIssuedInstType_0::InstPrefetch            0      0.00%    100.00% # Number of instructions issued per FU type, per thread (Count)
system.cpu.statIssuedInstType_0::total       18517665                       # Number of instructions issued per FU type, per thread (Count)
system.cpu.issueRate                         3.409860                       # Inst issue rate ((Count/Cycle))
system.cpu.fuBusy                              228327                       # FU busy when requested (Count)
system.cpu.fuBusyRate                        0.012330                       # FU busy rate (busy events/executed inst) ((Count/Count))
system.cpu.intInstQueueReads                 40720169                       # Number of integer instruction queue reads (Count)
system.cpu.intInstQueueWrites                17770370                       # Number of integer instruction queue writes (Count)
system.cpu.intInstQueueWakeupAccesses        17547861                       # Number of integer instruction queue wakeup accesses (Count)
system.cpu.fpInstQueueReads                   1919724                       # Number of floating instruction queue reads (Count)
system.cpu.fpInstQueueWrites                   951554                       # Number of floating instruction queue writes (Count)
system.cpu.fpInstQueueWakeupAccesses           949789                       # Number of floating instruction queue wakeup accesses (Count)
system.cpu.vecInstQueueReads                        0                       # Number of vector instruction queue reads (Count)
system.cpu.vecInstQueueWrites                       0                       # Number of vector instruction queue writes (Count)
system.cpu.vecInstQueueWakeupAccesses               0                       # Number of vector instruction queue wakeup accesses (Count)
system.cpu.intAluAccesses                    17727977                       # Number of integer alu accesses (Count)
system.cpu.fpAluAccesses                       969792                       # Number of floating point alu accesses (Count)
system.cpu.vecAluAccesses                           0                       # Number of vector alu accesses (Count)
system.cpu.numInsts                          18510102                       # Number of executed instructions (Count)
system.cpu.numLoadInsts                       2094277                       # Number of load instructions executed (Count)
system.cpu.numSquashedInsts                      7558                       # Number of squashed instructions skipped in execute (Count)
system.cpu.numSwp                                   0                       # Number of swp insts executed (Count)
system.cpu.numNop                                   0                       # Number of nop insts executed (Count)
system.cpu.numRefs                            3751430                       # Number of memory reference insts executed (Count)
system.cpu.numBranches                        1809377                       # Number of branches executed (Count)
system.cpu.numStoreInsts                      1657153                       # Number of stores executed (Count)
system.cpu.numRate                           3.408467                       # Inst execution rate ((Count/Cycle))
system.cpu.timesIdled                             630                       # Number of times that the entire CPU went into an idle state and unscheduled itself (Count)
system.cpu.idleCycles                           54731                       # Total number of cycles that the CPU has spent unscheduled due to idling (Cycle)
system.cpu.committedInsts                    10000002                       # Number of Instructions Simulated (Count)
system.cpu.committedOps                      18411886                       # Number of Ops (including micro ops) Simulated (Count)
system.cpu.cpi                               0.543062                       # CPI: Cycles Per Instruction ((Cycle/Count))
system.cpu.totalCpi                          0.543062                       # CPI: Total CPI of All Threads ((Cycle/Count))
system.cpu.ipc                               1.841409                       # IPC: Instructions Per Cycle ((Count/Cycle))
system.cpu.totalIpc                          1.841409                       # IPC: Total IPC of All Threads ((Count/Cycle))
system.cpu.intRegfileReads                   28653030                       # Number of integer regfile reads (Count)
system.cpu.intRegfileWrites                  13176519                       # Number of integer regfile writes (Count)
system.cpu.fpRegfileReads                     2430722                       # Number of floating regfile reads (Count)
system.cpu.fpRegfileWrites                     758291                       # Number of floating regfile writes (Count)
system.cpu.ccRegfileReads                     9301688                       # number of cc regfile reads (Count)
system.cpu.ccRegfileWrites                    6937713                       # number of cc regfile writes (Count)
system.cpu.miscRegfileReads                   7473622                       # number of misc regfile reads (Count)
system.cpu.miscRegfileWrites                       36                       # number of misc regfile writes (Count)
system.cpu.MemDepUnit__0.insertedLoads        2094314                       # Number of loads inserted to the mem dependence unit. (Count)
system.cpu.MemDepUnit__0.insertedStores       1661712                       # Number of stores inserted to the mem dependence unit. (Count)
system.cpu.MemDepUnit__0.conflictingLoads       157419                       # Number of conflicting loads. (Count)
system.cpu.MemDepUnit__0.conflictingStores       116937                       # Number of conflicting stores. (Count)
system.cpu.MemDepUnit__1.insertedLoads              0                       # Number of loads inserted to the mem dependence unit. (Count)
system.cpu.MemDepUnit__1.insertedStores             0                       # Number of stores inserted to the mem dependence unit. (Count)
system.cpu.MemDepUnit__1.conflictingLoads            0                       # Number of conflicting loads. (Count)
system.cpu.MemDepUnit__1.conflictingStores            0                       # Number of conflicting stores. (Count)
system.cpu.MemDepUnit__2.insertedLoads              0                       # Number of loads inserted to the mem dependence unit. (Count)
system.cpu.MemDepUnit__2.insertedStores             0                       # Number of stores inserted to the mem dependence unit. (Count)
system.cpu.MemDepUnit__2.conflictingLoads            0                       # Number of conflicting loads. (Count)
system.cpu.MemDepUnit__2.conflictingStores            0                       # Number of conflicting stores. (Count)
system.cpu.MemDepUnit__3.insertedLoads              0                       # Number of loads inserted to the mem dependence unit. (Count)
system.cpu.MemDepUnit__3.insertedStores             0                       # Number of stores inserted to the mem dependence unit. (Count)
system.cpu.MemDepUnit__3.conflictingLoads            0                       # Number of conflicting loads. (Count)
system.cpu.MemDepUnit__3.conflictingStores            0                       # Number of conflicting stores. (Count)
system.cpu.branchPred.lookups                 1828984                       # Number of BP lookups (Count)
system.cpu.branchPred.condPredicted           1239548                       # Number of conditional branches predicted (Count)
system.cpu.branchPred.condIncorrect              3854                       # Number of conditional branches incorrect (Count)
system.cpu.branchPred.BTBLookups               809938                       # Number of BTB lookups (Count)
system.cpu.branchPred.BTBHits                  807536                       # Number of BTB hits (Count)
system.cpu.branchPred.BTBHitRatio            0.997034                       # BTB Hit Ratio (Ratio)
system.cpu.branchPred.RASUsed                  227018                       # Number of times the RAS was used to get a target. (Count)
system.cpu.branchPred.RASIncorrect                  1                       # Number of incorrect RAS predictions. (Count)
system.cpu.branchPred.indirectLookups           60462                       # Number of indirect predictor lookups. (Count)
system.cpu.branchPred.indirectHits              59553                       # Number of indirect target hits. (Count)
system.cpu.branchPred.indirectMisses              909                       # Number of indirect misses. (Count)
system.cpu.branchPred.indirectMispredicted          228                       # Number of mispredicted indirect branches. (Count)
system.cpu.commit.commitSquashedInsts          150864                       # The number of squashed insts skipped by commit (Count)
system.cpu.commit.commitNonSpecStalls              36                       # The number of times commit has been forced to stall to communicate backwards (Count)
system.cpu.commit.branchMispredicts              3546                       # The number of times a branch was mispredicted (Count)
system.cpu.commit.numCommittedDist::samples      5354216                       # Number of insts commited each cycle (Count)
system.cpu.commit.numCommittedDist::mean     3.438764                       # Number of insts commited each cycle (Count)
system.cpu.commit.numCommittedDist::stdev     3.014664                       # Number of insts commited each cycle (Count)
system.cpu.commit.numCommittedDist::underflows            0      0.00%      0.00% # Number of insts commited each cycle (Count)
system.cpu.commit.numCommittedDist::0          693277     12.95%     12.95% # Number of insts commited each cycle (Count)
system.cpu.commit.numCommittedDist::1         1519186     28.37%     41.32% # Number of insts commited each cycle (Count)
system.cpu.commit.numCommittedDist::2          591300     11.04%     52.37% # Number of insts commited each cycle (Count)
system.cpu.commit.numCommittedDist::3          542616     10.13%     62.50% # Number of insts commited each cycle (Count)
system.cpu.commit.numCommittedDist::4          221279      4.13%     66.63% # Number of insts commited each cycle (Count)
system.cpu.commit.numCommittedDist::5          272904      5.10%     71.73% # Number of insts commited each cycle (Count)
system.cpu.commit.numCommittedDist::6           59340      1.11%     72.84% # Number of insts commited each cycle (Count)
system.cpu.commit.numCommittedDist::7          157936      2.95%     75.79% # Number of insts commited each cycle (Count)
system.cpu.commit.numCommittedDist::8         1296378     24.21%    100.00% # Number of insts commited each cycle (Count)
system.cpu.commit.numCommittedDist::overflows            0      0.00%    100.00% # Number of insts commited each cycle (Count)
system.cpu.commit.numCommittedDist::min_value            0                       # Number of insts commited each cycle (Count)
system.cpu.commit.numCommittedDist::max_value            8                       # Number of insts commited each cycle (Count)
system.cpu.commit.numCommittedDist::total      5354216                       # Number of insts commited each cycle (Count)
system.cpu.commit.instsCommitted             10000002                       # Number of instructions committed (Count)
system.cpu.commit.opsCommitted               18411886                       # Number of ops (including micro ops) committed (Count)
system.cpu.commit.memRefs                     3723877                       # Number of memory references committed (Count)
system.cpu.commit.loads                       2072933                       # Number of loads committed (Count)
system.cpu.commit.amos                              0                       # Number of atomic instructions committed (Count)
system.cpu.commit.membars                           0                       # Number of memory barriers committed (Count)
system.cpu.commit.branches                    1803799                       # Number of branches committed (Count)
system.cpu.commit.vectorInstructions                0                       # Number of committed Vector instructions. (Count)
system.cpu.commit.floating                     949390                       # Number of committed floating point instructions. (Count)
system.cpu.commit.integer                    17762247                       # Number of committed integer instructions. (Count)
system.cpu.commit.functionCalls                225127                       # Number of function calls committed. (Count)
system.cpu.commit.committedInstType_0::No_OpClass        46939      0.25%      0.25% # Class of committed instruction (Count)
system.cpu.commit.committedInstType_0::IntAlu     13885864     75.42%     75.67% # Class of committed instruction (Count)
system.cpu.commit.committedInstType_0::IntMult        73143      0.40%     76.07% # Class of committed instruction (Count)
system.cpu.commit.committedInstType_0::IntDiv         3157      0.02%     76.09% # Class of committed instruction (Count)
system.cpu.commit.committedInstType_0::FloatAdd        19803      0.11%     76.19% # Class of committed instruction (Count)
system.cpu.commit.committedInstType_0::FloatCmp            0      0.00%     76.19% # Class of committed instruction (Count)
system.cpu.commit.committedInstType_0::FloatCvt           64      0.00%     76.20% # Class of committed instruction (Count)
system.cpu.commit.committedInstType_0::FloatMult            0      0.00%     76.20% # Class of committed instruction (Count)
system.cpu.commit.committedInstType_0::FloatMultAcc            0      0.00%     76.20% # Class of committed instruction (Count)
system.cpu.commit.committedInstType_0::FloatDiv            0      0.00%     76.20% # Class of committed instruction (Count)
system.cpu.commit.committedInstType_0::FloatMisc            0      0.00%     76.20% # Class of committed instruction (Count)
system.cpu.commit.committedInstType_0::FloatSqrt            0      0.00%     76.20% # Class of committed instruction (Count)
system.cpu.commit.committedInstType_0::SimdAdd            0      0.00%     76.20% # Class of committed instruction (Count)
system.cpu.commit.committedInstType_0::SimdAddAcc            0      0.00%     76.20% # Class of committed instruction (Count)
system.cpu.commit.committedInstType_0::SimdAlu       158132      0.86%     77.05% # Class of committed instruction (Count)
system.cpu.commit.committedInstType_0::SimdCmp            0      0.00%     77.05% # Class of committed instruction (Count)
system.cpu.commit.committedInstType_0::SimdCvt        79142      0.43%     77.48% # Class of committed instruction (Count)
system.cpu.commit.committedInstType_0::SimdMisc       290007      1.58%     79.06% # Class of committed instruction (Count)
system.cpu.commit.committedInstType_0::SimdMult            0      0.00%     79.06% # Class of committed instruction (Count)
system.cpu.commit.committedInstType_0::SimdMultAcc            0      0.00%     79.06% # Class of committed instruction (Count)
system.cpu.commit.committedInstType_0::SimdShift            0      0.00%     79.06% # Class of committed instruction (Count)
system.cpu.commit.committedInstType_0::SimdShiftAcc            0      0.00%     79.06% # Class of committed instruction (Count)
system.cpu.commit.committedInstType_0::SimdDiv            0      0.00%     79.06% # Class of committed instruction (Count)
system.cpu.commit.committedInstType_0::SimdSqrt            0      0.00%     79.06% # Class of committed instruction (Count)
system.cpu.commit.committedInstType_0::SimdFloatAdd            0      0.00%     79.06% # Class of committed instruction (Count)
system.cpu.commit.committedInstType_0::SimdFloatAlu            0      0.00%     79.06% # Class of committed instruction (Count)
system.cpu.commit.committedInstType_0::SimdFloatCmp            0      0.00%     79.06% # Class of committed instruction (Count)
system.cpu.commit.committedInstType_0::SimdFloatCvt        65879      0.36%     79.42% # Class of committed instruction (Count)
system.cpu.commit.committedInstType_0::SimdFloatDiv            0      0.00%     79.42% # Class of committed instruction (Count)
system.cpu.commit.committedInstType_0::SimdFloatMisc            0      0.00%     79.42% # Class of committed instruction (Count)
system.cpu.commit.committedInstType_0::SimdFloatMult        65879      0.36%     79.77% # Class of committed instruction (Count)
system.cpu.commit.committedInstType_0::SimdFloatMultAcc            0      0.00%     79.77% # Class of committed instruction (Count)
system.cpu.commit.committedInstType_0::SimdFloatSqrt            0      0.00%     79.77% # Class of committed instruction (Count)
system.cpu.commit.committedInstType_0::SimdReduceAdd            0      0.00%     79.77% # Class of committed instruction (Count)
system.cpu.commit.committedInstType_0::SimdReduceAlu            0      0.00%     79.77% # Class of committed instruction (Count)
system.cpu.commit.committedInstType_0::SimdReduceCmp            0      0.00%     79.77% # Class of committed instruction (Count)
system.cpu.commit.committedInstType_0::SimdFloatReduceAdd            0      0.00%     79.77% # Class of committed instruction (Count)
system.cpu.commit.committedInstType_0::SimdFloatReduceCmp            0      0.00%     79.77% # Class of committed instruction (Count)
system.cpu.commit.committedInstType_0::SimdAes            0      0.00%     79.77% # Class of committed instruction (Count)
system.cpu.commit.committedInstType_0::SimdAesMix            0      0.00%     79.77% # Class of committed instruction (Count)
system.cpu.commit.committedInstType_0::SimdSha1Hash            0      0.00%     79.77% # Class of committed instruction (Count)
system.cpu.commit.committedInstType_0::SimdSha1Hash2            0      0.00%     79.77% # Class of committed instruction (Count)
system.cpu.commit.committedInstType_0::SimdSha256Hash            0      0.00%     79.77% # Class of committed instruction (Count)
system.cpu.commit.committedInstType_0::SimdSha256Hash2            0      0.00%     79.77% # Class of committed instruction (Count)
system.cpu.commit.committedInstType_0::SimdShaSigma2            0      0.00%     79.77% # Class of committed instruction (Count)
system.cpu.commit.committedInstType_0::SimdShaSigma3            0      0.00%     79.77% # Class of committed instruction (Count)
system.cpu.commit.committedInstType_0::SimdPredAlu            0      0.00%     79.77% # Class of committed instruction (Count)
system.cpu.commit.committedInstType_0::MemRead      1967338     10.69%     90.46% # Class of committed instruction (Count)
system.cpu.commit.committedInstType_0::MemWrite      1545394      8.39%     98.85% # Class of committed instruction (Count)
system.cpu.commit.committedInstType_0::FloatMemRead       105595      0.57%     99.43% # Class of committed instruction (Count)
system.cpu.commit.committedInstType_0::FloatMemWrite       105550      0.57%    100.00% # Class of committed instruction (Count)
system.cpu.commit.committedInstType_0::IprAccess            0      0.00%    100.00% # Class of committed instruction (Count)
system.cpu.commit.committedInstType_0::InstPrefetch            0      0.00%    100.00% # Class of committed instruction (Count)
system.cpu.commit.committedInstType_0::total     18411886                       # Class of committed instruction (Count)
system.cpu.commit.commitEligibleSamples       1296378                       # number cycles where commit BW limit reached (Cycle)
system.cpu.dcache.demandHits::cpu.data        3083970                       # number of demand (read+write) hits (Count)
system.cpu.dcache.demandHits::total           3083970                       # number of demand (read+write) hits (Count)
system.cpu.dcache.overallHits::cpu.data       3083970                       # number of overall hits (Count)
system.cpu.dcache.overallHits::total          3083970                       # number of overall hits (Count)
system.cpu.dcache.demandMisses::cpu.data         5061                       # number of demand (read+write) misses (Count)
system.cpu.dcache.demandMisses::total            5061                       # number of demand (read+write) misses (Count)
system.cpu.dcache.overallMisses::cpu.data         5061                       # number of overall misses (Count)
system.cpu.dcache.overallMisses::total           5061                       # number of overall misses (Count)
system.cpu.dcache.demandMissLatency::cpu.data    291063489                       # number of demand (read+write) miss ticks (Tick)
system.cpu.dcache.demandMissLatency::total    291063489                       # number of demand (read+write) miss ticks (Tick)
system.cpu.dcache.overallMissLatency::cpu.data    291063489                       # number of overall miss ticks (Tick)
system.cpu.dcache.overallMissLatency::total    291063489                       # number of overall miss ticks (Tick)
system.cpu.dcache.demandAccesses::cpu.data      3089031                       # number of demand (read+write) accesses (Count)
system.cpu.dcache.demandAccesses::total       3089031                       # number of demand (read+write) accesses (Count)
system.cpu.dcache.overallAccesses::cpu.data      3089031                       # number of overall (read+write) accesses (Count)
system.cpu.dcache.overallAccesses::total      3089031                       # number of overall (read+write) accesses (Count)
system.cpu.dcache.demandMissRate::cpu.data     0.001638                       # miss rate for demand accesses (Ratio)
system.cpu.dcache.demandMissRate::total      0.001638                       # miss rate for demand accesses (Ratio)
system.cpu.dcache.overallMissRate::cpu.data     0.001638                       # miss rate for overall accesses (Ratio)
system.cpu.dcache.overallMissRate::total     0.001638                       # miss rate for overall accesses (Ratio)
system.cpu.dcache.demandAvgMissLatency::cpu.data 57511.062833                       # average overall miss latency in ticks ((Tick/Count))
system.cpu.dcache.demandAvgMissLatency::total 57511.062833                       # average overall miss latency in ticks ((Tick/Count))
system.cpu.dcache.overallAvgMissLatency::cpu.data 57511.062833                       # average overall miss latency ((Tick/Count))
system.cpu.dcache.overallAvgMissLatency::total 57511.062833                       # average overall miss latency ((Tick/Count))
system.cpu.dcache.blockedCycles::no_mshrs        13942                       # number of cycles access was blocked (Cycle)
system.cpu.dcache.blockedCycles::no_targets            0                       # number of cycles access was blocked (Cycle)
system.cpu.dcache.blockedCauses::no_mshrs          274                       # number of times access was blocked (Count)
system.cpu.dcache.blockedCauses::no_targets            0                       # number of times access was blocked (Count)
system.cpu.dcache.avgBlocked::no_mshrs      50.883212                       # average number of cycles each access was blocked ((Cycle/Count))
system.cpu.dcache.avgBlocked::no_targets          nan                       # average number of cycles each access was blocked ((Cycle/Count))
system.cpu.dcache.writebacks::writebacks          463                       # number of writebacks (Count)
system.cpu.dcache.writebacks::total               463                       # number of writebacks (Count)
system.cpu.dcache.demandMshrHits::cpu.data         3111                       # number of demand (read+write) MSHR hits (Count)
system.cpu.dcache.demandMshrHits::total          3111                       # number of demand (read+write) MSHR hits (Count)
system.cpu.dcache.overallMshrHits::cpu.data         3111                       # number of overall MSHR hits (Count)
system.cpu.dcache.overallMshrHits::total         3111                       # number of overall MSHR hits (Count)
system.cpu.dcache.demandMshrMisses::cpu.data         1950                       # number of demand (read+write) MSHR misses (Count)
system.cpu.dcache.demandMshrMisses::total         1950                       # number of demand (read+write) MSHR misses (Count)
system.cpu.dcache.overallMshrMisses::cpu.data         1950                       # number of overall MSHR misses (Count)
system.cpu.dcache.overallMshrMisses::total         1950                       # number of overall MSHR misses (Count)
system.cpu.dcache.demandMshrMissLatency::cpu.data    122828989                       # number of demand (read+write) MSHR miss ticks (Tick)
system.cpu.dcache.demandMshrMissLatency::total    122828989                       # number of demand (read+write) MSHR miss ticks (Tick)
system.cpu.dcache.overallMshrMissLatency::cpu.data    122828989                       # number of overall MSHR miss ticks (Tick)
system.cpu.dcache.overallMshrMissLatency::total    122828989                       # number of overall MSHR miss ticks (Tick)
system.cpu.dcache.demandMshrMissRate::cpu.data     0.000631                       # mshr miss ratio for demand accesses (Ratio)
system.cpu.dcache.demandMshrMissRate::total     0.000631                       # mshr miss ratio for demand accesses (Ratio)
system.cpu.dcache.overallMshrMissRate::cpu.data     0.000631                       # mshr miss ratio for overall accesses (Ratio)
system.cpu.dcache.overallMshrMissRate::total     0.000631                       # mshr miss ratio for overall accesses (Ratio)
system.cpu.dcache.demandAvgMshrMissLatency::cpu.data 62989.225128                       # average overall mshr miss latency ((Tick/Count))
system.cpu.dcache.demandAvgMshrMissLatency::total 62989.225128                       # average overall mshr miss latency ((Tick/Count))
system.cpu.dcache.overallAvgMshrMissLatency::cpu.data 62989.225128                       # average overall mshr miss latency ((Tick/Count))
system.cpu.dcache.overallAvgMshrMissLatency::total 62989.225128                       # average overall mshr miss latency ((Tick/Count))
system.cpu.dcache.replacements                   1438                       # number of replacements (Count)
system.cpu.dcache.ReadReq.hits::cpu.data      1428285                       # number of ReadReq hits (Count)
system.cpu.dcache.ReadReq.hits::total         1428285                       # number of ReadReq hits (Count)
system.cpu.dcache.ReadReq.misses::cpu.data         4382                       # number of ReadReq misses (Count)
system.cpu.dcache.ReadReq.misses::total          4382                       # number of ReadReq misses (Count)
system.cpu.dcache.ReadReq.missLatency::cpu.data    250294500                       # number of ReadReq miss ticks (Tick)
system.cpu.dcache.ReadReq.missLatency::total    250294500                       # number of ReadReq miss ticks (Tick)
system.cpu.dcache.ReadReq.accesses::cpu.data      1432667                       # number of ReadReq accesses(hits+misses) (Count)
system.cpu.dcache.ReadReq.accesses::total      1432667                       # number of ReadReq accesses(hits+misses) (Count)
system.cpu.dcache.ReadReq.missRate::cpu.data     0.003059                       # miss rate for ReadReq accesses (Ratio)
system.cpu.dcache.ReadReq.missRate::total     0.003059                       # miss rate for ReadReq accesses (Ratio)
system.cpu.dcache.ReadReq.avgMissLatency::cpu.data 57118.781378                       # average ReadReq miss latency ((Tick/Count))
system.cpu.dcache.ReadReq.avgMissLatency::total 57118.781378                       # average ReadReq miss latency ((Tick/Count))
system.cpu.dcache.ReadReq.mshrHits::cpu.data         3104                       # number of ReadReq MSHR hits (Count)
system.cpu.dcache.ReadReq.mshrHits::total         3104                       # number of ReadReq MSHR hits (Count)
system.cpu.dcache.ReadReq.mshrMisses::cpu.data         1278                       # number of ReadReq MSHR misses (Count)
system.cpu.dcache.ReadReq.mshrMisses::total         1278                       # number of ReadReq MSHR misses (Count)
system.cpu.dcache.ReadReq.mshrMissLatency::cpu.data     82953000                       # number of ReadReq MSHR miss ticks (Tick)
system.cpu.dcache.ReadReq.mshrMissLatency::total     82953000                       # number of ReadReq MSHR miss ticks (Tick)
system.cpu.dcache.ReadReq.mshrMissRate::cpu.data     0.000892                       # mshr miss rate for ReadReq accesses (Ratio)
system.cpu.dcache.ReadReq.mshrMissRate::total     0.000892                       # mshr miss rate for ReadReq accesses (Ratio)
system.cpu.dcache.ReadReq.avgMshrMissLatency::cpu.data 64908.450704                       # average ReadReq mshr miss latency ((Tick/Count))
system.cpu.dcache.ReadReq.avgMshrMissLatency::total 64908.450704                       # average ReadReq mshr miss latency ((Tick/Count))
system.cpu.dcache.WriteReq.hits::cpu.data      1655685                       # number of WriteReq hits (Count)
system.cpu.dcache.WriteReq.hits::total        1655685                       # number of WriteReq hits (Count)
system.cpu.dcache.WriteReq.misses::cpu.data          679                       # number of WriteReq misses (Count)
system.cpu.dcache.WriteReq.misses::total          679                       # number of WriteReq misses (Count)
system.cpu.dcache.WriteReq.missLatency::cpu.data     40768989                       # number of WriteReq miss ticks (Tick)
system.cpu.dcache.WriteReq.missLatency::total     40768989                       # number of WriteReq miss ticks (Tick)
system.cpu.dcache.WriteReq.accesses::cpu.data      1656364                       # number of WriteReq accesses(hits+misses) (Count)
system.cpu.dcache.WriteReq.accesses::total      1656364                       # number of WriteReq accesses(hits+misses) (Count)
system.cpu.dcache.WriteReq.missRate::cpu.data     0.000410                       # miss rate for WriteReq accesses (Ratio)
system.cpu.dcache.WriteReq.missRate::total     0.000410                       # miss rate for WriteReq accesses (Ratio)
system.cpu.dcache.WriteReq.avgMissLatency::cpu.data 60042.693667                       # average WriteReq miss latency ((Tick/Count))
system.cpu.dcache.WriteReq.avgMissLatency::total 60042.693667                       # average WriteReq miss latency ((Tick/Count))
system.cpu.dcache.WriteReq.mshrHits::cpu.data            7                       # number of WriteReq MSHR hits (Count)
system.cpu.dcache.WriteReq.mshrHits::total            7                       # number of WriteReq MSHR hits (Count)
system.cpu.dcache.WriteReq.mshrMisses::cpu.data          672                       # number of WriteReq MSHR misses (Count)
system.cpu.dcache.WriteReq.mshrMisses::total          672                       # number of WriteReq MSHR misses (Count)
system.cpu.dcache.WriteReq.mshrMissLatency::cpu.data     39875989                       # number of WriteReq MSHR miss ticks (Tick)
system.cpu.dcache.WriteReq.mshrMissLatency::total     39875989                       # number of WriteReq MSHR miss ticks (Tick)
system.cpu.dcache.WriteReq.mshrMissRate::cpu.data     0.000406                       # mshr miss rate for WriteReq accesses (Ratio)
system.cpu.dcache.WriteReq.mshrMissRate::total     0.000406                       # mshr miss rate for WriteReq accesses (Ratio)
system.cpu.dcache.WriteReq.avgMshrMissLatency::cpu.data 59339.269345                       # average WriteReq mshr miss latency ((Tick/Count))
system.cpu.dcache.WriteReq.avgMshrMissLatency::total 59339.269345                       # average WriteReq mshr miss latency ((Tick/Count))
system.cpu.dcache.power_state.pwrStateResidencyTicks::UNDEFINED   2715311500                       # Cumulative time (in ticks) in various power states (Tick)
system.cpu.dcache.tags.tagsInUse           507.320955                       # Average ticks per tags in use ((Tick/Count))
system.cpu.dcache.tags.totalRefs              3085920                       # Total number of references to valid blocks. (Count)
system.cpu.dcache.tags.sampledRefs               1950                       # Sample count of references to valid blocks. (Count)
system.cpu.dcache.tags.avgRefs            1582.523077                       # Average number of references to valid blocks. ((Count/Count))
system.cpu.dcache.tags.warmupTick              148000                       # The tick when the warmup percentage was hit. (Tick)
system.cpu.dcache.tags.occupancies::cpu.data   507.320955                       # Average occupied blocks per tick, per requestor ((Count/Tick))
system.cpu.dcache.tags.avgOccs::cpu.data     0.990861                       # Average percentage of cache occupancy ((Ratio/Tick))
system.cpu.dcache.tags.avgOccs::total        0.990861                       # Average percentage of cache occupancy ((Ratio/Tick))
system.cpu.dcache.tags.occupanciesTaskId::1024          512                       # Occupied blocks per task id (Count)
system.cpu.dcache.tags.ageTaskId_1024::3          512                       # Occupied blocks per task id, per block age (Count)
system.cpu.dcache.tags.ratioOccsTaskId::1024            1                       # Ratio of occupied blocks and all blocks, per task id (Ratio)
system.cpu.dcache.tags.tagAccesses           24714198                       # Number of tag accesses (Count)
system.cpu.dcache.tags.dataAccesses          24714198                       # Number of data accesses (Count)
system.cpu.dcache.tags.power_state.pwrStateResidencyTicks::UNDEFINED   2715311500                       # Cumulative time (in ticks) in various power states (Tick)
system.cpu.decode.idleCycles                  1413365                       # Number of cycles decode is idle (Cycle)
system.cpu.decode.blockedCycles               1064446                       # Number of cycles decode is blocked (Cycle)
system.cpu.decode.runCycles                   2567985                       # Number of cycles decode is running (Cycle)
system.cpu.decode.unblockCycles                326091                       # Number of cycles decode is unblocking (Cycle)
system.cpu.decode.squashCycles                   4006                       # Number of cycles decode is squashing (Cycle)
system.cpu.decode.branchResolved               805874                       # Number of times decode resolved a branch (Count)
system.cpu.decode.branchMispred                   572                       # Number of times decode detected a branch misprediction (Count)
system.cpu.decode.decodedInsts               18608332                       # Number of instructions handled by decode (Count)
system.cpu.decode.squashedInsts                  2573                       # Number of squashed instructions handled by decode (Count)
system.cpu.dtb_walker_cache.blockedCycles::no_mshrs            0                       # number of cycles access was blocked (Cycle)
system.cpu.dtb_walker_cache.blockedCycles::no_targets            0                       # number of cycles access was blocked (Cycle)
system.cpu.dtb_walker_cache.blockedCauses::no_mshrs            0                       # number of times access was blocked (Count)
system.cpu.dtb_walker_cache.blockedCauses::no_targets            0                       # number of times access was blocked (Count)
system.cpu.dtb_walker_cache.avgBlocked::no_mshrs          nan                       # average number of cycles each access was blocked ((Cycle/Count))
system.cpu.dtb_walker_cache.avgBlocked::no_targets          nan                       # average number of cycles each access was blocked ((Cycle/Count))
system.cpu.dtb_walker_cache.replacements            0                       # number of replacements (Count)
system.cpu.dtb_walker_cache.power_state.pwrStateResidencyTicks::UNDEFINED   2715311500                       # Cumulative time (in ticks) in various power states (Tick)
system.cpu.dtb_walker_cache.tags.tagsInUse            0                       # Average ticks per tags in use ((Tick/Count))
system.cpu.dtb_walker_cache.tags.totalRefs            0                       # Total number of references to valid blocks. (Count)
system.cpu.dtb_walker_cache.tags.sampledRefs            0                       # Sample count of references to valid blocks. (Count)
system.cpu.dtb_walker_cache.tags.avgRefs          nan                       # Average number of references to valid blocks. ((Count/Count))
system.cpu.dtb_walker_cache.tags.warmupTick            0                       # The tick when the warmup percentage was hit. (Tick)
system.cpu.dtb_walker_cache.tags.tagAccesses            0                       # Number of tag accesses (Count)
system.cpu.dtb_walker_cache.tags.dataAccesses            0                       # Number of data accesses (Count)
system.cpu.dtb_walker_cache.tags.power_state.pwrStateResidencyTicks::UNDEFINED   2715311500                       # Cumulative time (in ticks) in various power states (Tick)
system.cpu.fetch.icacheStallCycles            1588953                       # Number of cycles fetch is stalled on an Icache miss (Cycle)
system.cpu.fetch.insts                       10135012                       # Number of instructions fetch has processed (Count)
system.cpu.fetch.branches                     1828984                       # Number of branches that fetch encountered (Count)
system.cpu.fetch.predictedBranches            1094107                       # Number of branches that fetch has predicted taken (Count)
system.cpu.fetch.cycles                       3780243                       # Number of cycles fetch has run and was not squashing or blocked (Cycle)
system.cpu.fetch.squashCycles                    9116                       # Number of cycles fetch has spent squashing (Cycle)
system.cpu.fetch.miscStallCycles                  263                       # Number of cycles fetch has spent waiting on interrupts, or bad addresses, or out of MSHRs (Cycle)
system.cpu.fetch.pendingTrapStallCycles          1876                       # Number of stall cycles due to pending traps (Cycle)
system.cpu.fetch.cacheLines                   1558618                       # Number of cache lines fetched (Count)
system.cpu.fetch.icacheSquashes                  1423                       # Number of outstanding Icache misses that were squashed (Count)
system.cpu.fetch.nisnDist::samples            5375893                       # Number of instructions fetched each cycle (Total) (Count)
system.cpu.fetch.nisnDist::mean              3.469182                       # Number of instructions fetched each cycle (Total) (Count)
system.cpu.fetch.nisnDist::stdev             3.479079                       # Number of instructions fetched each cycle (Total) (Count)
system.cpu.fetch.nisnDist::underflows               0      0.00%      0.00% # Number of instructions fetched each cycle (Total) (Count)
system.cpu.fetch.nisnDist::0                  2246670     41.79%     41.79% # Number of instructions fetched each cycle (Total) (Count)
system.cpu.fetch.nisnDist::1                   257540      4.79%     46.58% # Number of instructions fetched each cycle (Total) (Count)
system.cpu.fetch.nisnDist::2                   113858      2.12%     48.70% # Number of instructions fetched each cycle (Total) (Count)
system.cpu.fetch.nisnDist::3                   351383      6.54%     55.24% # Number of instructions fetched each cycle (Total) (Count)
system.cpu.fetch.nisnDist::4                   164011      3.05%     58.29% # Number of instructions fetched each cycle (Total) (Count)
system.cpu.fetch.nisnDist::5                   241974      4.50%     62.79% # Number of instructions fetched each cycle (Total) (Count)
system.cpu.fetch.nisnDist::6                   288484      5.37%     68.15% # Number of instructions fetched each cycle (Total) (Count)
system.cpu.fetch.nisnDist::7                   182055      3.39%     71.54% # Number of instructions fetched each cycle (Total) (Count)
system.cpu.fetch.nisnDist::8                  1529918     28.46%    100.00% # Number of instructions fetched each cycle (Total) (Count)
system.cpu.fetch.nisnDist::overflows                0      0.00%    100.00% # Number of instructions fetched each cycle (Total) (Count)
system.cpu.fetch.nisnDist::min_value                0                       # Number of instructions fetched each cycle (Total) (Count)
system.cpu.fetch.nisnDist::max_value                8                       # Number of instructions fetched each cycle (Total) (Count)
system.cpu.fetch.nisnDist::total              5375893                       # Number of instructions fetched each cycle (Total) (Count)
system.cpu.fetch.branchRate                  0.336791                       # Number of branch fetches per cycle (Ratio)
system.cpu.fetch.rate                        1.866270                       # Number of inst fetches per cycle ((Count/Cycle))
system.cpu.icache.demandHits::cpu.inst        1557255                       # number of demand (read+write) hits (Count)
system.cpu.icache.demandHits::total           1557255                       # number of demand (read+write) hits (Count)
system.cpu.icache.overallHits::cpu.inst       1557255                       # number of overall hits (Count)
system.cpu.icache.overallHits::total          1557255                       # number of overall hits (Count)
system.cpu.icache.demandMisses::cpu.inst         1363                       # number of demand (read+write) misses (Count)
system.cpu.icache.demandMisses::total            1363                       # number of demand (read+write) misses (Count)
system.cpu.icache.overallMisses::cpu.inst         1363                       # number of overall misses (Count)
system.cpu.icache.overallMisses::total           1363                       # number of overall misses (Count)
system.cpu.icache.demandMissLatency::cpu.inst     77562500                       # number of demand (read+write) miss ticks (Tick)
system.cpu.icache.demandMissLatency::total     77562500                       # number of demand (read+write) miss ticks (Tick)
system.cpu.icache.overallMissLatency::cpu.inst     77562500                       # number of overall miss ticks (Tick)
system.cpu.icache.overallMissLatency::total     77562500                       # number of overall miss ticks (Tick)
system.cpu.icache.demandAccesses::cpu.inst      1558618                       # number of demand (read+write) accesses (Count)
system.cpu.icache.demandAccesses::total       1558618                       # number of demand (read+write) accesses (Count)
system.cpu.icache.overallAccesses::cpu.inst      1558618                       # number of overall (read+write) accesses (Count)
system.cpu.icache.overallAccesses::total      1558618                       # number of overall (read+write) accesses (Count)
system.cpu.icache.demandMissRate::cpu.inst     0.000874                       # miss rate for demand accesses (Ratio)
system.cpu.icache.demandMissRate::total      0.000874                       # miss rate for demand accesses (Ratio)
system.cpu.icache.overallMissRate::cpu.inst     0.000874                       # miss rate for overall accesses (Ratio)
system.cpu.icache.overallMissRate::total     0.000874                       # miss rate for overall accesses (Ratio)
system.cpu.icache.demandAvgMissLatency::cpu.inst 56905.722671                       # average overall miss latency in ticks ((Tick/Count))
system.cpu.icache.demandAvgMissLatency::total 56905.722671                       # average overall miss latency in ticks ((Tick/Count))
system.cpu.icache.overallAvgMissLatency::cpu.inst 56905.722671                       # average overall miss latency ((Tick/Count))
system.cpu.icache.overallAvgMissLatency::total 56905.722671                       # average overall miss latency ((Tick/Count))
system.cpu.icache.blockedCycles::no_mshrs            0                       # number of cycles access was blocked (Cycle)
system.cpu.icache.blockedCycles::no_targets            0                       # number of cycles access was blocked (Cycle)
system.cpu.icache.blockedCauses::no_mshrs            0                       # number of times access was blocked (Count)
system.cpu.icache.blockedCauses::no_targets            0                       # number of times access was blocked (Count)
system.cpu.icache.avgBlocked::no_mshrs            nan                       # average number of cycles each access was blocked ((Cycle/Count))
system.cpu.icache.avgBlocked::no_targets          nan                       # average number of cycles each access was blocked ((Cycle/Count))
system.cpu.icache.writebacks::writebacks          472                       # number of writebacks (Count)
system.cpu.icache.writebacks::total               472                       # number of writebacks (Count)
system.cpu.icache.demandMshrHits::cpu.inst          379                       # number of demand (read+write) MSHR hits (Count)
system.cpu.icache.demandMshrHits::total           379                       # number of demand (read+write) MSHR hits (Count)
system.cpu.icache.overallMshrHits::cpu.inst          379                       # number of overall MSHR hits (Count)
system.cpu.icache.overallMshrHits::total          379                       # number of overall MSHR hits (Count)
system.cpu.icache.demandMshrMisses::cpu.inst          984                       # number of demand (read+write) MSHR misses (Count)
system.cpu.icache.demandMshrMisses::total          984                       # number of demand (read+write) MSHR misses (Count)
system.cpu.icache.overallMshrMisses::cpu.inst          984                       # number of overall MSHR misses (Count)
system.cpu.icache.overallMshrMisses::total          984                       # number of overall MSHR misses (Count)
system.cpu.icache.demandMshrMissLatency::cpu.inst     59892000                       # number of demand (read+write) MSHR miss ticks (Tick)
system.cpu.icache.demandMshrMissLatency::total     59892000                       # number of demand (read+write) MSHR miss ticks (Tick)
system.cpu.icache.overallMshrMissLatency::cpu.inst     59892000                       # number of overall MSHR miss ticks (Tick)
system.cpu.icache.overallMshrMissLatency::total     59892000                       # number of overall MSHR miss ticks (Tick)
system.cpu.icache.demandMshrMissRate::cpu.inst     0.000631                       # mshr miss ratio for demand accesses (Ratio)
system.cpu.icache.demandMshrMissRate::total     0.000631                       # mshr miss ratio for demand accesses (Ratio)
system.cpu.icache.overallMshrMissRate::cpu.inst     0.000631                       # mshr miss ratio for overall accesses (Ratio)
system.cpu.icache.overallMshrMissRate::total     0.000631                       # mshr miss ratio for overall accesses (Ratio)
system.cpu.icache.demandAvgMshrMissLatency::cpu.inst 60865.853659                       # average overall mshr miss latency ((Tick/Count))
system.cpu.icache.demandAvgMshrMissLatency::total 60865.853659                       # average overall mshr miss latency ((Tick/Count))
system.cpu.icache.overallAvgMshrMissLatency::cpu.inst 60865.853659                       # average overall mshr miss latency ((Tick/Count))
system.cpu.icache.overallAvgMshrMissLatency::total 60865.853659                       # average overall mshr miss latency ((Tick/Count))
system.cpu.icache.replacements                    472                       # number of replacements (Count)
system.cpu.icache.ReadReq.hits::cpu.inst      1557255                       # number of ReadReq hits (Count)
system.cpu.icache.ReadReq.hits::total         1557255                       # number of ReadReq hits (Count)
system.cpu.icache.ReadReq.misses::cpu.inst         1363                       # number of ReadReq misses (Count)
system.cpu.icache.ReadReq.misses::total          1363                       # number of ReadReq misses (Count)
system.cpu.icache.ReadReq.missLatency::cpu.inst     77562500                       # number of ReadReq miss ticks (Tick)
system.cpu.icache.ReadReq.missLatency::total     77562500                       # number of ReadReq miss ticks (Tick)
system.cpu.icache.ReadReq.accesses::cpu.inst      1558618                       # number of ReadReq accesses(hits+misses) (Count)
system.cpu.icache.ReadReq.accesses::total      1558618                       # number of ReadReq accesses(hits+misses) (Count)
system.cpu.icache.ReadReq.missRate::cpu.inst     0.000874                       # miss rate for ReadReq accesses (Ratio)
system.cpu.icache.ReadReq.missRate::total     0.000874                       # miss rate for ReadReq accesses (Ratio)
system.cpu.icache.ReadReq.avgMissLatency::cpu.inst 56905.722671                       # average ReadReq miss latency ((Tick/Count))
system.cpu.icache.ReadReq.avgMissLatency::total 56905.722671                       # average ReadReq miss latency ((Tick/Count))
system.cpu.icache.ReadReq.mshrHits::cpu.inst          379                       # number of ReadReq MSHR hits (Count)
system.cpu.icache.ReadReq.mshrHits::total          379                       # number of ReadReq MSHR hits (Count)
system.cpu.icache.ReadReq.mshrMisses::cpu.inst          984                       # number of ReadReq MSHR misses (Count)
system.cpu.icache.ReadReq.mshrMisses::total          984                       # number of ReadReq MSHR misses (Count)
system.cpu.icache.ReadReq.mshrMissLatency::cpu.inst     59892000                       # number of ReadReq MSHR miss ticks (Tick)
system.cpu.icache.ReadReq.mshrMissLatency::total     59892000                       # number of ReadReq MSHR miss ticks (Tick)
system.cpu.icache.ReadReq.mshrMissRate::cpu.inst     0.000631                       # mshr miss rate for ReadReq accesses (Ratio)
system.cpu.icache.ReadReq.mshrMissRate::total     0.000631                       # mshr miss rate for ReadReq accesses (Ratio)
system.cpu.icache.ReadReq.avgMshrMissLatency::cpu.inst 60865.853659                       # average ReadReq mshr miss latency ((Tick/Count))
system.cpu.icache.ReadReq.avgMshrMissLatency::total 60865.853659                       # average ReadReq mshr miss latency ((Tick/Count))
system.cpu.icache.power_state.pwrStateResidencyTicks::UNDEFINED   2715311500                       # Cumulative time (in ticks) in various power states (Tick)
system.cpu.icache.tags.tagsInUse           508.223156                       # Average ticks per tags in use ((Tick/Count))
system.cpu.icache.tags.totalRefs              1558239                       # Total number of references to valid blocks. (Count)
system.cpu.icache.tags.sampledRefs                984                       # Sample count of references to valid blocks. (Count)
system.cpu.icache.tags.avgRefs            1583.576220                       # Average number of references to valid blocks. ((Count/Count))
system.cpu.icache.tags.warmupTick               77000                       # The tick when the warmup percentage was hit. (Tick)
system.cpu.icache.tags.occupancies::cpu.inst   508.223156                       # Average occupied blocks per tick, per requestor ((Count/Tick))
system.cpu.icache.tags.avgOccs::cpu.inst     0.992623                       # Average percentage of cache occupancy ((Ratio/Tick))
system.cpu.icache.tags.avgOccs::total        0.992623                       # Average percentage of cache occupancy ((Ratio/Tick))
system.cpu.icache.tags.occupanciesTaskId::1024          512                       # Occupied blocks per task id (Count)
system.cpu.icache.tags.ageTaskId_1024::3          512                       # Occupied blocks per task id, per block age (Count)
system.cpu.icache.tags.ratioOccsTaskId::1024            1                       # Ratio of occupied blocks and all blocks, per task id (Ratio)
system.cpu.icache.tags.tagAccesses           12469928                       # Number of tag accesses (Count)
system.cpu.icache.tags.dataAccesses          12469928                       # Number of data accesses (Count)
system.cpu.icache.tags.power_state.pwrStateResidencyTicks::UNDEFINED   2715311500                       # Cumulative time (in ticks) in various power states (Tick)
system.cpu.iew.reusedInsts                    2229982                       # Number of instructions reused (Cycle)
system.cpu.iew.reusedFloatInsts                333165                       # Number of float instructions reused (Cycle)
system.cpu.iew.reusedIntInsts                 1896817                       # Number of int instructions reused (Cycle)
system.cpu.iew.reusedVecInsts                       0                       # Number of vector instructions reused (Cycle)
system.cpu.iew.idleCycles                           0                       # Number of cycles IEW is idle (Cycle)
system.cpu.iew.squashCycles                      4006                       # Number of cycles IEW is squashing (Cycle)
system.cpu.iew.blockCycles                      54102                       # Number of cycles IEW is blocking (Cycle)
system.cpu.iew.unblockCycles                     5063                       # Number of cycles IEW is unblocking (Cycle)
system.cpu.iew.dispatchedInsts               18566805                       # Number of instructions dispatched to IQ (Count)
system.cpu.iew.dispSquashedInsts                  411                       # Number of squashed instructions skipped by dispatch (Count)
system.cpu.iew.dispLoadInsts                  2094314                       # Number of dispatched load instructions (Count)
system.cpu.iew.dispStoreInsts                 1661712                       # Number of dispatched store instructions (Count)
system.cpu.iew.dispNonSpecInsts                    45                       # Number of dispatched non-speculative instructions (Count)
system.cpu.iew.iqFullEvents                       278                       # Number of times the IQ has become full, causing a stall (Count)
system.cpu.iew.lsqFullEvents                     4548                       # Number of times the LSQ has become full, causing a stall (Count)
system.cpu.iew.memOrderViolationEvents            299                       # Number of memory order violations (Count)
system.cpu.iew.predictedTakenIncorrect           1227                       # Number of branches that were predicted taken incorrectly (Count)
system.cpu.iew.predictedNotTakenIncorrect         2728                       # Number of branches that were predicted not taken incorrectly (Count)
system.cpu.iew.branchMispredicts                 3955                       # Number of branch mispredicts detected at execute (Count)
system.cpu.iew.instsToCommit                 18499806                       # Cumulative count of insts sent to commit (Count)
system.cpu.iew.writebackCount                18497650                       # Cumulative count of insts written-back (Count)
system.cpu.iew.producerInst                  13329940                       # Number of instructions producing a value (Count)
system.cpu.iew.consumerInst                  23961990                       # Number of instructions consuming a value (Count)
system.cpu.iew.wbRate                        3.406174                       # Insts written-back per cycle ((Count/Cycle))
system.cpu.iew.wbFanout                      0.556295                       # Average fanout of values written-back ((Count/Count))
system.cpu.interrupts.clk_domain.clock           8000                       # Clock period in ticks (Tick)
system.cpu.itb_walker_cache.blockedCycles::no_mshrs            0                       # number of cycles access was blocked (Cycle)
system.cpu.itb_walker_cache.blockedCycles::no_targets            0                       # number of cycles access was blocked (Cycle)
system.cpu.itb_walker_cache.blockedCauses::no_mshrs            0                       # number of times access was blocked (Count)
system.cpu.itb_walker_cache.blockedCauses::no_targets            0                       # number of times access was blocked (Count)
system.cpu.itb_walker_cache.avgBlocked::no_mshrs          nan                       # average number of cycles each access was blocked ((Cycle/Count))
system.cpu.itb_walker_cache.avgBlocked::no_targets          nan                       # average number of cycles each access was blocked ((Cycle/Count))
system.cpu.itb_walker_cache.replacements            0                       # number of replacements (Count)
system.cpu.itb_walker_cache.power_state.pwrStateResidencyTicks::UNDEFINED   2715311500                       # Cumulative time (in ticks) in various power states (Tick)
system.cpu.itb_walker_cache.tags.tagsInUse            0                       # Average ticks per tags in use ((Tick/Count))
system.cpu.itb_walker_cache.tags.totalRefs            0                       # Total number of references to valid blocks. (Count)
system.cpu.itb_walker_cache.tags.sampledRefs            0                       # Sample count of references to valid blocks. (Count)
system.cpu.itb_walker_cache.tags.avgRefs          nan                       # Average number of references to valid blocks. ((Count/Count))
system.cpu.itb_walker_cache.tags.warmupTick            0                       # The tick when the warmup percentage was hit. (Tick)
system.cpu.itb_walker_cache.tags.tagAccesses            0                       # Number of tag accesses (Count)
system.cpu.itb_walker_cache.tags.dataAccesses            0                       # Number of data accesses (Count)
system.cpu.itb_walker_cache.tags.power_state.pwrStateResidencyTicks::UNDEFINED   2715311500                       # Cumulative time (in ticks) in various power states (Tick)
system.cpu.lsq0.forwLoads                      653103                       # Number of loads that had data forwarded from stores (Count)
system.cpu.lsq0.squashedLoads                   21376                       # Number of loads squashed (Count)
system.cpu.lsq0.ignoredResponses                   63                       # Number of memory responses ignored because the instruction is squashed (Count)
system.cpu.lsq0.memOrderViolation                 299                       # Number of memory ordering violations (Count)
system.cpu.lsq0.squashedStores                  10765                       # Number of stores squashed (Count)
system.cpu.lsq0.rescheduledLoads                 6593                       # Number of loads that were rescheduled (Count)
system.cpu.lsq0.blockedByCache                    259                       # Number of times an access to memory failed due to the cache being blocked (Count)
system.cpu.lsq0.loadToUse::samples            2072932                       # Distribution of cycle latency between the first time a load is issued and its completion (Unspecified)
system.cpu.lsq0.loadToUse::mean              3.174832                       # Distribution of cycle latency between the first time a load is issued and its completion (Unspecified)
system.cpu.lsq0.loadToUse::stdev             6.911828                       # Distribution of cycle latency between the first time a load is issued and its completion (Unspecified)
system.cpu.lsq0.loadToUse::0-9                2062622     99.50%     99.50% # Distribution of cycle latency between the first time a load is issued and its completion (Unspecified)
system.cpu.lsq0.loadToUse::10-19                  186      0.01%     99.51% # Distribution of cycle latency between the first time a load is issued and its completion (Unspecified)
system.cpu.lsq0.loadToUse::20-29                   77      0.00%     99.52% # Distribution of cycle latency between the first time a load is issued and its completion (Unspecified)
system.cpu.lsq0.loadToUse::30-39                    9      0.00%     99.52% # Distribution of cycle latency between the first time a load is issued and its completion (Unspecified)
system.cpu.lsq0.loadToUse::40-49                 6607      0.32%     99.83% # Distribution of cycle latency between the first time a load is issued and its completion (Unspecified)
system.cpu.lsq0.loadToUse::50-59                   11      0.00%     99.84% # Distribution of cycle latency between the first time a load is issued and its completion (Unspecified)
system.cpu.lsq0.loadToUse::60-69                   18      0.00%     99.84% # Distribution of cycle latency between the first time a load is issued and its completion (Unspecified)
system.cpu.lsq0.loadToUse::70-79                   26      0.00%     99.84% # Distribution of cycle latency between the first time a load is issued and its completion (Unspecified)
system.cpu.lsq0.loadToUse::80-89                   39      0.00%     99.84% # Distribution of cycle latency between the first time a load is issued and its completion (Unspecified)
[...]
system.mem_ctrls.dram.bwWrite::total         10912928                       # Write bandwidth from this memory ((Byte/Second))
system.mem_ctrls.dram.bwTotal::writebacks     10912928                       # Total bandwidth to/from this memory ((Byte/Second))
system.mem_ctrls.dram.bwTotal::cpu.inst      23192919                       # Total bandwidth to/from this memory ((Byte/Second))
system.mem_ctrls.dram.bwTotal::cpu.data      45961578                       # Total bandwidth to/from this memory ((Byte/Second))
system.mem_ctrls.dram.bwTotal::total         80067425                       # Total bandwidth to/from this memory ((Byte/Second))
system.mem_ctrls.dram.readBursts                 2932                       # Number of DRAM read bursts (Count)
system.mem_ctrls.dram.writeBursts                 907                       # Number of DRAM write bursts (Count)
system.mem_ctrls.dram.perBankRdBursts::0          187                       # Per bank write bursts (Count)
system.mem_ctrls.dram.perBankRdBursts::1          242                       # Per bank write bursts (Count)
system.mem_ctrls.dram.perBankRdBursts::2          212                       # Per bank write bursts (Count)
system.mem_ctrls.dram.perBankRdBursts::3          292                       # Per bank write bursts (Count)
system.mem_ctrls.dram.perBankRdBursts::4          343                       # Per bank write bursts (Count)
system.mem_ctrls.dram.perBankRdBursts::5          264                       # Per bank write bursts (Count)
system.mem_ctrls.dram.perBankRdBursts::6          239                       # Per bank write bursts (Count)
system.mem_ctrls.dram.perBankRdBursts::7          169                       # Per bank write bursts (Count)
system.mem_ctrls.dram.perBankRdBursts::8          142                       # Per bank write bursts (Count)
system.mem_ctrls.dram.perBankRdBursts::9          137                       # Per bank write bursts (Count)
system.mem_ctrls.dram.perBankRdBursts::10           66                       # Per bank write bursts (Count)
system.mem_ctrls.dram.perBankRdBursts::11           74                       # Per bank write bursts (Count)
system.mem_ctrls.dram.perBankRdBursts::12           96                       # Per bank write bursts (Count)
system.mem_ctrls.dram.perBankRdBursts::13          190                       # Per bank write bursts (Count)
system.mem_ctrls.dram.perBankRdBursts::14          167                       # Per bank write bursts (Count)
system.mem_ctrls.dram.perBankRdBursts::15          112                       # Per bank write bursts (Count)
system.mem_ctrls.dram.perBankWrBursts::0           44                       # Per bank write bursts (Count)
system.mem_ctrls.dram.perBankWrBursts::1            1                       # Per bank write bursts (Count)
system.mem_ctrls.dram.perBankWrBursts::2           61                       # Per bank write bursts (Count)
system.mem_ctrls.dram.perBankWrBursts::3          150                       # Per bank write bursts (Count)
system.mem_ctrls.dram.perBankWrBursts::4           83                       # Per bank write bursts (Count)
system.mem_ctrls.dram.perBankWrBursts::5          102                       # Per bank write bursts (Count)
system.mem_ctrls.dram.perBankWrBursts::6          125                       # Per bank write bursts (Count)
system.mem_ctrls.dram.perBankWrBursts::7            3                       # Per bank write bursts (Count)
system.mem_ctrls.dram.perBankWrBursts::8           30                       # Per bank write bursts (Count)
system.mem_ctrls.dram.perBankWrBursts::9           49                       # Per bank write bursts (Count)
system.mem_ctrls.dram.perBankWrBursts::10           16                       # Per bank write bursts (Count)
system.mem_ctrls.dram.perBankWrBursts::11           12                       # Per bank write bursts (Count)
system.mem_ctrls.dram.perBankWrBursts::12           46                       # Per bank write bursts (Count)
system.mem_ctrls.dram.perBankWrBursts::13           72                       # Per bank write bursts (Count)
system.mem_ctrls.dram.perBankWrBursts::14           40                       # Per bank write bursts (Count)
system.mem_ctrls.dram.perBankWrBursts::15           73                       # Per bank write bursts (Count)
system.mem_ctrls.dram.totQLat                33666750                       # Total ticks spent queuing (Tick)
system.mem_ctrls.dram.totBusLat              14660000                       # Total ticks spent in databus transfers (Tick)
system.mem_ctrls.dram.totMemAccLat           88641750                       # Total ticks spent from burst creation until serviced by the DRAM (Tick)
system.mem_ctrls.dram.avgQLat                11482.52                       # Average queueing delay per DRAM burst ((Tick/Count))
system.mem_ctrls.dram.avgBusLat               5000.00                       # Average bus latency per DRAM burst ((Tick/Count))
system.mem_ctrls.dram.avgMemAccLat           30232.52                       # Average memory access latency per DRAM burst ((Tick/Count))
system.mem_ctrls.dram.readRowHits                2408                       # Number of row buffer hits during reads (Count)
system.mem_ctrls.dram.writeRowHits                745                       # Number of row buffer hits during writes (Count)
system.mem_ctrls.dram.readRowHitRate            82.13                       # Row buffer hit rate for reads (Ratio)
system.mem_ctrls.dram.writeRowHitRate           82.14                       # Row buffer hit rate for writes (Ratio)
system.mem_ctrls.dram.bytesPerActivate::samples          686                       # Bytes accessed per row activation (Byte)
system.mem_ctrls.dram.bytesPerActivate::mean   358.157434                       # Bytes accessed per row activation (Byte)
system.mem_ctrls.dram.bytesPerActivate::gmean   221.052775                       # Bytes accessed per row activation (Byte)
system.mem_ctrls.dram.bytesPerActivate::stdev   339.864823                       # Bytes accessed per row activation (Byte)
system.mem_ctrls.dram.bytesPerActivate::0-127          189     27.55%     27.55% # Bytes accessed per row activation (Byte)
system.mem_ctrls.dram.bytesPerActivate::128-255          173     25.22%     52.77% # Bytes accessed per row activation (Byte)
system.mem_ctrls.dram.bytesPerActivate::256-383           74     10.79%     63.56% # Bytes accessed per row activation (Byte)
system.mem_ctrls.dram.bytesPerActivate::384-511           62      9.04%     72.59% # Bytes accessed per row activation (Byte)
system.mem_ctrls.dram.bytesPerActivate::512-639           36      5.25%     77.84% # Bytes accessed per row activation (Byte)
system.mem_ctrls.dram.bytesPerActivate::640-767           28      4.08%     81.92% # Bytes accessed per row activation (Byte)
system.mem_ctrls.dram.bytesPerActivate::768-895           11      1.60%     83.53% # Bytes accessed per row activation (Byte)
system.mem_ctrls.dram.bytesPerActivate::896-1023           18      2.62%     86.15% # Bytes accessed per row activation (Byte)
system.mem_ctrls.dram.bytesPerActivate::1024-1151           95     13.85%    100.00% # Bytes accessed per row activation (Byte)
system.mem_ctrls.dram.bytesPerActivate::total          686                       # Bytes accessed per row activation (Byte)
system.mem_ctrls.dram.bytesRead                187648                       # Total bytes read (Byte)
system.mem_ctrls.dram.bytesWritten              58048                       # Total bytes written (Byte)
system.mem_ctrls.dram.avgRdBW               69.107357                       # Average DRAM read bandwidth in MiBytes/s ((Byte/Second))
system.mem_ctrls.dram.avgWrBW               21.378026                       # Average DRAM write bandwidth in MiBytes/s ((Byte/Second))
system.mem_ctrls.dram.peakBW                 12800.00                       # Theoretical peak bandwidth in MiByte/s ((Byte/Second))
system.mem_ctrls.dram.busUtil                    0.71                       # Data bus utilization in percentage (Ratio)
system.mem_ctrls.dram.busUtilRead                0.54                       # Data bus utilization in percentage for reads (Ratio)
system.mem_ctrls.dram.busUtilWrite               0.17                       # Data bus utilization in percentage for writes (Ratio)
system.mem_ctrls.dram.pageHitRate               82.13                       # Row buffer hit rate, read and write combined (Ratio)
system.mem_ctrls.dram.power_state.pwrStateResidencyTicks::UNDEFINED   2715311500                       # Cumulative time (in ticks) in various power states (Tick)
system.mem_ctrls.dram.rank0.actEnergy         2934540                       # Energy for activate commands per rank (pJ) (Joule)
system.mem_ctrls.dram.rank0.preEnergy         1559745                       # Energy for precharge commands per rank (pJ) (Joule)
system.mem_ctrls.dram.rank0.readEnergy       13908720                       # Energy for read commands per rank (pJ) (Joule)
system.mem_ctrls.dram.rank0.writeEnergy       2970180                       # Energy for write commands per rank (pJ) (Joule)
system.mem_ctrls.dram.rank0.refreshEnergy 213894720.000000                       # Energy for refresh commands per rank (pJ) (Joule)
system.mem_ctrls.dram.rank0.actBackEnergy    123778350                       # Energy for active background per rank (pJ) (Joule)
system.mem_ctrls.dram.rank0.preBackEnergy    938445600                       # Energy for precharge background per rank (pJ) (Joule)
system.mem_ctrls.dram.rank0.actPowerDownEnergy            0                       # Energy for active power-down per rank (pJ) (Joule)
system.mem_ctrls.dram.rank0.prePowerDownEnergy            0                       # Energy for precharge power-down per rank (pJ) (Joule)
system.mem_ctrls.dram.rank0.selfRefreshEnergy            0                       # Energy for self refresh per rank (pJ) (Joule)
system.mem_ctrls.dram.rank0.totalEnergy    1297491855                       # Total energy per rank (pJ) (Joule)
system.mem_ctrls.dram.rank0.averagePower   477.842728                       # Core power per rank (mW) (Watt)
system.mem_ctrls.dram.rank0.totalIdleTime            0                       # Total Idle time Per DRAM Rank (Tick)
system.mem_ctrls.dram.rank0.pwrStateTime::IDLE   2438622000                       # Time in different power states (Tick)
system.mem_ctrls.dram.rank0.pwrStateTime::REF     90480000                       # Time in different power states (Tick)
system.mem_ctrls.dram.rank0.pwrStateTime::SREF            0                       # Time in different power states (Tick)
system.mem_ctrls.dram.rank0.pwrStateTime::PRE_PDN            0                       # Time in different power states (Tick)
system.mem_ctrls.dram.rank0.pwrStateTime::ACT    186209500                       # Time in different power states (Tick)
system.mem_ctrls.dram.rank0.pwrStateTime::ACT_PDN            0                       # Time in different power states (Tick)
system.mem_ctrls.dram.rank1.actEnergy         1963500                       # Energy for activate commands per rank (pJ) (Joule)
system.mem_ctrls.dram.rank1.preEnergy         1043625                       # Energy for precharge commands per rank (pJ) (Joule)
system.mem_ctrls.dram.rank1.readEnergy        7025760                       # Energy for read commands per rank (pJ) (Joule)
system.mem_ctrls.dram.rank1.writeEnergy       1764360                       # Energy for write commands per rank (pJ) (Joule)
system.mem_ctrls.dram.rank1.refreshEnergy 213894720.000000                       # Energy for refresh commands per rank (pJ) (Joule)
system.mem_ctrls.dram.rank1.actBackEnergy    102189600                       # Energy for active background per rank (pJ) (Joule)
system.mem_ctrls.dram.rank1.preBackEnergy    956625600                       # Energy for precharge background per rank (pJ) (Joule)
system.mem_ctrls.dram.rank1.actPowerDownEnergy            0                       # Energy for active power-down per rank (pJ) (Joule)
system.mem_ctrls.dram.rank1.prePowerDownEnergy            0                       # Energy for precharge power-down per rank (pJ) (Joule)
system.mem_ctrls.dram.rank1.selfRefreshEnergy            0                       # Energy for self refresh per rank (pJ) (Joule)
system.mem_ctrls.dram.rank1.totalEnergy    1284507165                       # Total energy per rank (pJ) (Joule)
system.mem_ctrls.dram.rank1.averagePower   473.060702                       # Core power per rank (mW) (Watt)
system.mem_ctrls.dram.rank1.totalIdleTime            0                       # Total Idle time Per DRAM Rank (Tick)
system.mem_ctrls.dram.rank1.pwrStateTime::IDLE   2486117250                       # Time in different power states (Tick)
system.mem_ctrls.dram.rank1.pwrStateTime::REF     90480000                       # Time in different power states (Tick)
system.mem_ctrls.dram.rank1.pwrStateTime::SREF            0                       # Time in different power states (Tick)
system.mem_ctrls.dram.rank1.pwrStateTime::PRE_PDN            0                       # Time in different power states (Tick)
system.mem_ctrls.dram.rank1.pwrStateTime::ACT    138714250                       # Time in different power states (Tick)
system.mem_ctrls.dram.rank1.pwrStateTime::ACT_PDN            0                       # Time in different power states (Tick)
system.mem_ctrls.power_state.pwrStateResidencyTicks::UNDEFINED   2715311500                       # Cumulative time (in ticks) in various power states (Tick)
system.membus.transDist::ReadResp                2262                       # Transaction distribution (Count)
system.membus.transDist::WritebackDirty           463                       # Transaction distribution (Count)
system.membus.transDist::WritebackClean           472                       # Transaction distribution (Count)
system.membus.transDist::CleanEvict               975                       # Transaction distribution (Count)
system.membus.transDist::ReadExReq                672                       # Transaction distribution (Count)
system.membus.transDist::ReadExResp               672                       # Transaction distribution (Count)
system.membus.transDist::ReadCleanReq             984                       # Transaction distribution (Count)
system.membus.transDist::ReadSharedReq           1278                       # Transaction distribution (Count)
system.membus.pktCount_system.cpu.icache.mem_side_port::system.mem_ctrls.port         2440                       # Packet count per connected requestor and responder (Count)
system.membus.pktCount_system.cpu.icache.mem_side_port::total         2440                       # Packet count per connected requestor and responder (Count)
system.membus.pktCount_system.cpu.dcache.mem_side_port::system.mem_ctrls.port         5338                       # Packet count per connected requestor and responder (Count)
system.membus.pktCount_system.cpu.dcache.mem_side_port::total         5338                       # Packet count per connected requestor and responder (Count)
system.membus.pktCount::total                    7778                       # Packet count per connected requestor and responder (Count)
system.membus.pktSize_system.cpu.icache.mem_side_port::system.mem_ctrls.port        93184                       # Cumulative packet size per connected requestor and responder (Byte)
system.membus.pktSize_system.cpu.icache.mem_side_port::total        93184                       # Cumulative packet size per connected requestor and responder (Byte)
system.membus.pktSize_system.cpu.dcache.mem_side_port::system.mem_ctrls.port       154432                       # Cumulative packet size per connected requestor and responder (Byte)
system.membus.pktSize_system.cpu.dcache.mem_side_port::total       154432                       # Cumulative packet size per connected requestor and responder (Byte)
system.membus.pktSize::total                   247616                       # Cumulative packet size per connected requestor and responder (Byte)
system.membus.snoops                                0                       # Total snoops (Count)
system.membus.snoopTraffic                          0                       # Total snoop traffic (Byte)
system.membus.snoopFanout::samples               2934                       # Request fanout histogram (Count)
system.membus.snoopFanout::mean              0.002727                       # Request fanout histogram (Count)
system.membus.snoopFanout::stdev             0.052155                       # Request fanout histogram (Count)
system.membus.snoopFanout::underflows               0      0.00%      0.00% # Request fanout histogram (Count)
system.membus.snoopFanout::0                     2926     99.73%     99.73% # Request fanout histogram (Count)
system.membus.snoopFanout::1                        8      0.27%    100.00% # Request fanout histogram (Count)
system.membus.snoopFanout::2                        0      0.00%    100.00% # Request fanout histogram (Count)
system.membus.snoopFanout::3                        0      0.00%    100.00% # Request fanout histogram (Count)
system.membus.snoopFanout::4                        0      0.00%    100.00% # Request fanout histogram (Count)
system.membus.snoopFanout::overflows                0      0.00%    100.00% # Request fanout histogram (Count)
system.membus.snoopFanout::min_value                0                       # Request fanout histogram (Count)
system.membus.snoopFanout::max_value                1                       # Request fanout histogram (Count)
system.membus.snoopFanout::total                 2934                       # Request fanout histogram (Count)
system.membus.power_state.pwrStateResidencyTicks::UNDEFINED   2715311500                       # Cumulative time (in ticks) in various power states (Tick)
system.membus.reqLayer2.occupancy             9047500                       # Layer occupancy (ticks) (Tick)
system.membus.reqLayer2.utilization               0.0                       # Layer utilization (Ratio)
system.membus.respLayer1.occupancy            5216500                       # Layer occupancy (ticks) (Tick)
system.membus.respLayer1.utilization              0.0                       # Layer utilization (Ratio)
system.membus.respLayer2.occupancy           10310500                       # Layer occupancy (ticks) (Tick)
system.membus.respLayer2.utilization              0.0                       # Layer utilization (Ratio)
system.membus.snoop_filter.totRequests           4844                       # Total number of requests made to the snoop filter. (Count)
system.membus.snoop_filter.hitSingleRequests         1915                       # Number of requests hitting in the snoop filter with a single holder of the requested data. (Count)
system.membus.snoop_filter.hitMultiRequests            3                       # Number of requests hitting in the snoop filter with multiple (>1) holders of the requested data. (Count)
system.membus.snoop_filter.totSnoops                0                       # Total number of snoops made to the snoop filter. (Count)
system.membus.snoop_filter.hitSingleSnoops            0                       # Number of snoops hitting in the snoop filter with a single holder of the requested data. (Count)
system.membus.snoop_filter.hitMultiSnoops            0                       # Number of snoops hitting in the snoop filter with multiple (>1) holders of the requested data. (Count)
system.voltage_domain.voltage                       1                       # Voltage in Volts (Volt)
system.workload.inst.arm                            0                       # number of arm instructions executed (Count)
system.workload.inst.quiesce                        0                       # number of quiesce instructions executed (Count)

---------- End Simulation Statistics   ----------
