
---------- Begin Simulation Statistics ----------
simSeconds                                   0.001301                       # Number of seconds simulated (Second)
simTicks                                   1301064500                       # Number of ticks simulated (Tick)
finalTick                                  1301064500                       # Number of ticks from beginning of simulation (restored from checkpoints and never reset) (Tick)
simFreq                                  1000000000000                       # The number of ticks per simulated second ((Tick/Second))
hostSeconds                                     20.65                       # Real time elapsed on the host (Second)
hostTickRate                                 63014526                       # The number of ticks simulated per host second (ticks/s) ((Tick/Second))
hostMemory                                    8771896                       # Number of bytes of host memory used (Byte)
simInsts                                      1574793                       # Number of instructions simulated (Count)
simOps                                        3103891                       # Number of ops (including micro ops) simulated (Count)
hostInstRate                                    76271                       # Simulator instruction rate (inst/s) ((Count/Second))
hostOpRate                                     150328                       # Simulator op (including micro ops) rate (op/s) ((Count/Second))
system.clk_domain.clock                          1000                       # Clock period in ticks (Tick)
system.cpu.numCycles                          2602130                       # Number of cpu cycles simulated (Cycle)
system.cpu.numWorkItemsStarted                      0                       # Number of work items this cpu started (Count)
system.cpu.numWorkItemsCompleted                    0                       # Number of work items this cpu completed (Count)
system.cpu.instsAdded                         3966743                       # Number of instructions added to the IQ (excludes non-spec) (Count)
system.cpu.nonSpecInstsAdded                     2676                       # Number of non-speculative instructions added to the IQ (Count)
system.cpu.instsIssued                        3691318                       # Number of instructions issued (Count)
system.cpu.squashedInstsIssued                   2533                       # Number of squashed instructions issued (Count)
system.cpu.squashedInstsExamined               865522                       # Number of squashed instructions iterated over during squash; mainly for profiling (Count)
system.cpu.squashedOperandsExamined           1701938                       # Number of squashed operands that are examined and possibly removed from graph (Count)
system.cpu.squashedNonSpecRemoved                1182                       # Number of squashed non-spec instructions that were removed (Count)
system.cpu.numIssuedDist::samples             2322005                       # Number of insts issued each cycle (Count)
system.cpu.numIssuedDist::mean               1.589711                       # Number of insts issued each cycle (Count)
system.cpu.numIssuedDist::stdev              2.252301                       # Number of insts issued each cycle (Count)
system.cpu.numIssuedDist::underflows                0      0.00%      0.00% # Number of insts issued each cycle (Count)
system.cpu.numIssuedDist::0                   1308376     56.35%     56.35% # Number of insts issued each cycle (Count)
system.cpu.numIssuedDist::1                    187411      8.07%     64.42% # Number of insts issued each cycle (Count)
system.cpu.numIssuedDist::2                    166822      7.18%     71.60% # Number of insts issued each cycle (Count)
system.cpu.numIssuedDist::3                    167662      7.22%     78.82% # Number of insts issued each cycle (Count)
system.cpu.numIssuedDist::4                    158178      6.81%     85.64% # Number of insts issued each cycle (Count)
system.cpu.numIssuedDist::5                    116036      5.00%     90.63% # Number of insts issued each cycle (Count)
system.cpu.numIssuedDist::6                    108635      4.68%     95.31% # Number of insts issued each cycle (Count)
system.cpu.numIssuedDist::7                     68505      2.95%     98.26% # Number of insts issued each cycle (Count)
system.cpu.numIssuedDist::8                     40380      1.74%    100.00% # Number of insts issued each cycle (Count)
system.cpu.numIssuedDist::overflows                 0      0.00%    100.00% # Number of insts issued each cycle (Count)
system.cpu.numIssuedDist::min_value                 0                       # Number of insts issued each cycle (Count)
system.cpu.numIssuedDist::max_value                 8                       # Number of insts issued each cycle (Count)
system.cpu.numIssuedDist::total               2322005                       # Number of insts issued each cycle (Count)
system.cpu.statFuBusy::No_OpClass                   0      0.00%      0.00% # attempts to use FU when none available (Count)
system.cpu.statFuBusy::IntAlu                   36611     73.55%     73.55% # attempts to use FU when none available (Count)
system.cpu.statFuBusy::IntMult                      0      0.00%     73.55% # attempts to use FU when none available (Count)
system.cpu.statFuBusy::IntDiv                       0      0.00%     73.55% # attempts to use FU when none available (Count)
system.cpu.statFuBusy::FloatAdd                     0      0.00%     73.55% # attempts to use FU when none available (Count)
system.cpu.statFuBusy::FloatCmp                     0      0.00%     73.55% # attempts to use FU when none available (Count)
system.cpu.statFuBusy::FloatCvt                     2      0.00%     73.56% # attempts to use FU when none available (Count)
system.cpu.statFuBusy::FloatMult                    0      0.00%     73.56% # attempts to use FU when none available (Count)
system.cpu.statFuBusy::FloatMultAcc                 0      0.00%     73.56% # attempts to use FU when none available (Count)
system.cpu.statFuBusy::FloatDiv                     0      0.00%     73.56% # attempts to use FU when none available (Count)
system.cpu.statFuBusy::FloatMisc                    0      0.00%     73.56% # attempts to use FU when none available (Count)
system.cpu.statFuBusy::FloatSqrt                    0      0.00%     73.56% # attempts to use FU when none available (Count)
system.cpu.statFuBusy::SimdAdd                      0      0.00%     73.56% # attempts to use FU when none available (Count)
system.cpu.statFuBusy::SimdAddAcc                   0      0.00%     73.56% # attempts to use FU when none available (Count)
system.cpu.statFuBusy::SimdAlu                    140      0.28%     73.84% # attempts to use FU when none available (Count)
system.cpu.statFuBusy::SimdCmp                      0      0.00%     73.84% # attempts to use FU when none available (Count)
system.cpu.statFuBusy::SimdCvt                    277      0.56%     74.39% # attempts to use FU when none available (Count)
system.cpu.statFuBusy::SimdMisc                    99      0.20%     74.59% # attempts to use FU when none available (Count)
system.cpu.statFuBusy::SimdMult                     0      0.00%     74.59% # attempts to use FU when none available (Count)
system.cpu.statFuBusy::SimdMultAcc                  0      0.00%     74.59% # attempts to use FU when none available (Count)
system.cpu.statFuBusy::SimdShift                    1      0.00%     74.60% # attempts to use FU when none available (Count)
system.cpu.statFuBusy::SimdShiftAcc                 0      0.00%     74.60% # attempts to use FU when none available (Count)
system.cpu.statFuBusy::SimdDiv                      0      0.00%     74.60% # attempts to use FU when none available (Count)
system.cpu.statFuBusy::SimdSqrt                     0      0.00%     74.60% # attempts to use FU when none available (Count)
system.cpu.statFuBusy::SimdFloatAdd                 6      0.01%     74.61% # attempts to use FU when none available (Count)
system.cpu.statFuBusy::SimdFloatAlu                 0      0.00%     74.61% # attempts to use FU when none available (Count)
system.cpu.statFuBusy::SimdFloatCmp                 0      0.00%     74.61% # attempts to use FU when none available (Count)
system.cpu.statFuBusy::SimdFloatCvt                 0      0.00%     74.61% # attempts to use FU when none available (Count)
system.cpu.statFuBusy::SimdFloatDiv                 0      0.00%     74.61% # attempts to use FU when none available (Count)
system.cpu.statFuBusy::SimdFloatMisc                0      0.00%     74.61% # attempts to use FU when none available (Count)
system.cpu.statFuBusy::SimdFloatMult                0      0.00%     74.61% # attempts to use FU when none available (Count)
system.cpu.statFuBusy::SimdFloatMultAcc             0      0.00%     74.61% # attempts to use FU when none available (Count)
system.cpu.statFuBusy::SimdFloatSqrt                0      0.00%     74.61% # attempts to use FU when none available (Count)
system.cpu.statFuBusy::SimdReduceAdd                0      0.00%     74.61% # attempts to use FU when none available (Count)
system.cpu.statFuBusy::SimdReduceAlu                0      0.00%     74.61% # attempts to use FU when none available (Count)
system.cpu.statFuBusy::SimdReduceCmp                0      0.00%     74.61% # attempts to use FU when none available (Count)
system.cpu.statFuBusy::SimdFloatReduceAdd            0      0.00%     74.61% # attempts to use FU when none available (Count)
system.cpu.statFuBusy::SimdFloatReduceCmp            0      0.00%     74.61% # attempts to use FU when none available (Count)
system.cpu.statFuBusy::SimdAes                      0      0.00%     74.61% # attempts to use FU when none available (Count)
system.cpu.statFuBusy::SimdAesMix                   0      0.00%     74.61% # attempts to use FU when none available (Count)
system.cpu.statFuBusy::SimdSha1Hash                 0      0.00%     74.61% # attempts to use FU when none available (Count)
system.cpu.statFuBusy::SimdSha1Hash2                0      0.00%     74.61% # attempts to use FU when none available (Count)
system.cpu.statFuBusy::SimdSha256Hash               0      0.00%     74.61% # attempts to use FU when none available (Count)
system.cpu.statFuBusy::SimdSha256Hash2              0      0.00%     74.61% # attempts to use FU when none available (Count)
system.cpu.statFuBusy::SimdShaSigma2                0      0.00%     74.61% # attempts to use FU when none available (Count)
system.cpu.statFuBusy::SimdShaSigma3                0      0.00%     74.61% # attempts to use FU when none available (Count)
system.cpu.statFuBusy::SimdPredAlu                  0      0.00%     74.61% # attempts to use FU when none available (Count)
system.cpu.statFuBusy::MemRead                   6944     13.95%     88.56% # attempts to use FU when none available (Count)
system.cpu.statFuBusy::MemWrite                  4061      8.16%     96.72% # attempts to use FU when none available (Count)
system.cpu.statFuBusy::FloatMemRead              1252      2.52%     99.23% # attempts to use FU when none available (Count)
system.cpu.statFuBusy::FloatMemWrite              382      0.77%    100.00% # attempts to use FU when none available (Count)
system.cpu.statFuBusy::IprAccess                    0      0.00%    100.00% # attempts to use FU when none available (Count)
system.cpu.statFuBusy::InstPrefetch                 0      0.00%    100.00% # attempts to use FU when none available (Count)
system.cpu.statIssuedInstType_0::No_OpClass        10619      0.29%      0.29% # Number of instructions issued per FU type, per thread (Count)
system.cpu.statIssuedInstType_0::IntAlu       2794478     75.70%     75.99% # Number of instructions issued per FU type, per thread (Count)
system.cpu.statIssuedInstType_0::IntMult         2267      0.06%     76.05% # Number of instructions issued per FU type, per thread (Count)
system.cpu.statIssuedInstType_0::IntDiv         29799      0.81%     76.86% # Number of instructions issued per FU type, per thread (Count)
system.cpu.statIssuedInstType_0::FloatAdd         2072      0.06%     76.92% # Number of instructions issued per FU type, per thread (Count)
system.cpu.statIssuedInstType_0::FloatCmp            0      0.00%     76.92% # Number of instructions issued per FU type, per thread (Count)
system.cpu.statIssuedInstType_0::FloatCvt         1466      0.04%     76.96% # Number of instructions issued per FU type, per thread (Count)
system.cpu.statIssuedInstType_0::FloatMult            0      0.00%     76.96% # Number of instructions issued per FU type, per thread (Count)
system.cpu.statIssuedInstType_0::FloatMultAcc            0      0.00%     76.96% # Number of instructions issued per FU type, per thread (Count)
system.cpu.statIssuedInstType_0::FloatDiv            0      0.00%     76.96% # Number of instructions issued per FU type, per thread (Count)
system.cpu.statIssuedInstType_0::FloatMisc            0      0.00%     76.96% # Number of instructions issued per FU type, per thread (Count)
system.cpu.statIssuedInstType_0::FloatSqrt            0      0.00%     76.96% # Number of instructions issued per FU type, per thread (Count)
system.cpu.statIssuedInstType_0::SimdAdd           98      0.00%     76.96% # Number of instructions issued per FU type, per thread (Count)
system.cpu.statIssuedInstType_0::SimdAddAcc            0      0.00%     76.96% # Number of instructions issued per FU type, per thread (Count)
system.cpu.statIssuedInstType_0::SimdAlu         5453      0.15%     77.11% # Number of instructions issued per FU type, per thread (Count)
system.cpu.statIssuedInstType_0::SimdCmp            0      0.00%     77.11% # Number of instructions issued per FU type, per thread (Count)
system.cpu.statIssuedInstType_0::SimdCvt         3229      0.09%     77.19% # Number of instructions issued per FU type, per thread (Count)
system.cpu.statIssuedInstType_0::SimdMisc        11800      0.32%     77.51% # Number of instructions issued per FU type, per thread (Count)
system.cpu.statIssuedInstType_0::SimdMult            0      0.00%     77.51% # Number of instructions issued per FU type, per thread (Count)
system.cpu.statIssuedInstType_0::SimdMultAcc            0      0.00%     77.51% # Number of instructions issued per FU type, per thread (Count)
system.cpu.statIssuedInstType_0::SimdShift           18      0.00%     77.51% # Number of instructions issued per FU type, per thread (Count)
system.cpu.statIssuedInstType_0::SimdShiftAcc            0      0.00%     77.51% # Number of instructions issued per FU type, per thread (Count)
system.cpu.statIssuedInstType_0::SimdDiv            0      0.00%     77.51% # Number of instructions issued per FU type, per thread (Count)
system.cpu.statIssuedInstType_0::SimdSqrt            0      0.00%     77.51% # Number of instructions issued per FU type, per thread (Count)
system.cpu.statIssuedInstType_0::SimdFloatAdd          882      0.02%     77.54% # Number of instructions issued per FU type, per thread (Count)
system.cpu.statIssuedInstType_0::SimdFloatAlu            0      0.00%     77.54% # Number of instructions issued per FU type, per thread (Count)
system.cpu.statIssuedInstType_0::SimdFloatCmp            0      0.00%     77.54% # Number of instructions issued per FU type, per thread (Count)
system.cpu.statIssuedInstType_0::SimdFloatCvt          847      0.02%     77.56% # Number of instructions issued per FU type, per thread (Count)
system.cpu.statIssuedInstType_0::SimdFloatDiv            0      0.00%     77.56% # Number of instructions issued per FU type, per thread (Count)
system.cpu.statIssuedInstType_0::SimdFloatMisc            0      0.00%     77.56% # Number of instructions issued per FU type, per thread (Count)
system.cpu.statIssuedInstType_0::SimdFloatMult            0      0.00%     77.56% # Number of instructions issued per FU type, per thread (Count)
system.cpu.statIssuedInstType_0::SimdFloatMultAcc            0      0.00%     77.56% # Number of instructions issued per FU type, per thread (Count)
system.cpu.statIssuedInstType_0::SimdFloatSqrt            0      0.00%     77.56% # Number of instructions issued per FU type, per thread (Count)
system.cpu.statIssuedInstType_0::SimdReduceAdd            0      0.00%     77.56% # Number of instructions issued per FU type, per thread (Count)
system.cpu.statIssuedInstType_0::SimdReduceAlu            0      0.00%     77.56% # Number of instructions issued per FU type, per thread (Count)
system.cpu.statIssuedInstType_0::SimdReduceCmp            0      0.00%     77.56% # Number of instructions issued per FU type, per thread (Count)
system.cpu.statIssuedInstType_0::SimdFloatReduceAdd            0      0.00%     77.56% # Number of instructions issued per FU type, per thread (Count)
system.cpu.statIssuedInstType_0::SimdFloatReduceCmp            0      0.00%     77.56% # Number of instructions issued per FU type, per thread (Count)
system.cpu.statIssuedInstType_0::SimdAes            0      0.00%     77.56% # Number of instructions issued per FU type, per thread (Count)
system.cpu.statIssuedInstType_0::SimdAesMix            0      0.00%     77.56% # Number of instructions issued per FU type, per thread (Count)
system.cpu.statIssuedInstType_0::SimdSha1Hash            0      0.00%     77.56% # Number of instructions issued per FU type, per thread (Count)
system.cpu.statIssuedInstType_0::SimdSha1Hash2            0      0.00%     77.56% # Number of instructions issued per FU type, per thread (Count)
system.cpu.statIssuedInstType_0::SimdSha256Hash            0      0.00%     77.56% # Number of instructions issued per FU type, per thread (Count)
system.cpu.statIssuedInstType_0::SimdSha256Hash2            0      0.00%     77.56% # Number of instructions issued per FU type, per thread (Count)
system.cpu.statIssuedInstType_0::SimdShaSigma2            0      0.00%     77.56% # Number of instructions issued per FU type, per thread (Count)
system.cpu.statIssuedInstType_0::SimdShaSigma3            0      0.00%     77.56% # Number of instructions issued per FU type, per thread (Count)
system.cpu.statIssuedInstType_0::SimdPredAlu            0      0.00%     77.56% # Number of instructions issued per FU type, per thread (Count)
system.cpu.statIssuedInstType_0::MemRead       525810     14.24%     91.81% # Number of instructions issued per FU type, per thread (Count)
system.cpu.statIssuedInstType_0::MemWrite       263762      7.15%     98.95% # Number of instructions issued per FU type, per thread (Count)
system.cpu.statIssuedInstType_0::FloatMemRead        11464      0.31%     99.26% # Number of instructions issued per FU type, per thread (Count)
system.cpu.statIssuedInstType_0::FloatMemWrite        27254      0.74%    100.00% # Number of instructions issued per FU type, per thread (Count)
system.cpu.statIssuedInstType_0::IprAccess            0      0.00%    100.00% # Number of instructions issued per FU type, per thread (Count)
system.cpu.statIssuedInstType_0::InstPrefetch            0      0.00%    100.00% # Number of instructions issued per FU type, per thread (Count)
system.cpu.statIssuedInstType_0::total        3691318                       # Number of instructions issued per FU type, per thread (Count)
system.cpu.issueRate                         1.418576                       # Inst issue rate ((Count/Cycle))
system.cpu.fuBusy                               49775                       # FU busy when requested (Count)
system.cpu.fuBusyRate                        0.013484                       # FU busy rate (busy events/executed inst) ((Count/Count))
system.cpu.intInstQueueReads                  9621909                       # Number of integer instruction queue reads (Count)
system.cpu.intInstQueueWrites                 4750395                       # Number of integer instruction queue writes (Count)
system.cpu.intInstQueueWakeupAccesses         3562588                       # Number of integer instruction queue wakeup accesses (Count)
system.cpu.fpInstQueueReads                    135040                       # Number of floating instruction queue reads (Count)
system.cpu.fpInstQueueWrites                    84856                       # Number of floating instruction queue writes (Count)
system.cpu.fpInstQueueWakeupAccesses            63669                       # Number of floating instruction queue wakeup accesses (Count)
system.cpu.vecInstQueueReads                        0                       # Number of vector instruction queue reads (Count)
system.cpu.vecInstQueueWrites                       0                       # Number of vector instruction queue writes (Count)
system.cpu.vecInstQueueWakeupAccesses               0                       # Number of vector instruction queue wakeup accesses (Count)
system.cpu.intAluAccesses                     3661867                       # Number of integer alu accesses (Count)
system.cpu.fpAluAccesses                        68607                       # Number of floating point alu accesses (Count)
system.cpu.vecAluAccesses                           0                       # Number of vector alu accesses (Count)
system.cpu.numInsts                           3655381                       # Number of executed instructions (Count)
system.cpu.numLoadInsts                        528266                       # Number of load instructions executed (Count)
system.cpu.numSquashedInsts                     35937                       # Number of squashed instructions skipped in execute (Count)
system.cpu.numSwp                                   0                       # Number of swp insts executed (Count)
system.cpu.numNop                                   0                       # Number of nop insts executed (Count)
system.cpu.numRefs                             816354                       # Number of memory reference insts executed (Count)
system.cpu.numBranches                         412490                       # Number of branches executed (Count)
system.cpu.numStoreInsts                       288088                       # Number of stores executed (Count)
system.cpu.numRate                           1.404765                       # Inst execution rate ((Count/Cycle))
system.cpu.timesIdled                            2960                       # Number of times that the entire CPU went into an idle state and unscheduled itself (Count)
system.cpu.idleCycles                          280125                       # Total number of cycles that the CPU has spent unscheduled due to idling (Cycle)
system.cpu.committedInsts                     1574793                       # Number of Instructions Simulated (Count)
system.cpu.committedOps                       3103891                       # Number of Ops (including micro ops) Simulated (Count)
system.cpu.cpi                               1.652363                       # CPI: Cycles Per Instruction ((Cycle/Count))
system.cpu.totalCpi                          1.652363                       # CPI: Total CPI of All Threads ((Cycle/Count))
system.cpu.ipc                               0.605194                       # IPC: Instructions Per Cycle ((Count/Cycle))
system.cpu.totalIpc                          0.605194                       # IPC: Total IPC of All Threads ((Count/Cycle))
system.cpu.intRegfileReads                    5332728                       # Number of integer regfile reads (Count)
system.cpu.intRegfileWrites                   2668661                       # Number of integer regfile writes (Count)
system.cpu.fpRegfileReads                       93540                       # Number of floating regfile reads (Count)
system.cpu.fpRegfileWrites                      30809                       # Number of floating regfile writes (Count)
system.cpu.ccRegfileReads                     1957770                       # number of cc regfile reads (Count)
system.cpu.ccRegfileWrites                    1106812                       # number of cc regfile writes (Count)
system.cpu.miscRegfileReads                   1618715                       # number of misc regfile reads (Count)
system.cpu.miscRegfileWrites                      504                       # number of misc regfile writes (Count)
system.cpu.MemDepUnit__0.insertedLoads         567423                       # Number of loads inserted to the mem dependence unit. (Count)
system.cpu.MemDepUnit__0.insertedStores        305013                       # Number of stores inserted to the mem dependence unit. (Count)
system.cpu.MemDepUnit__0.conflictingLoads        20171                       # Number of conflicting loads. (Count)
system.cpu.MemDepUnit__0.conflictingStores        17077                       # Number of conflicting stores. (Count)
system.cpu.MemDepUnit__1.insertedLoads              0                       # Number of loads inserted to the mem dependence unit. (Count)
system.cpu.MemDepUnit__1.insertedStores             0                       # Number of stores inserted to the mem dependence unit. (Count)
system.cpu.MemDepUnit__1.conflictingLoads            0                       # Number of conflicting loads. (Count)
system.cpu.MemDepUnit__1.conflictingStores            0                       # Number of conflicting stores. (Count)
system.cpu.MemDepUnit__2.insertedLoads              0                       # Number of loads inserted to the mem dependence unit. (Count)
system.cpu.MemDepUnit__2.insertedStores             0                       # Number of stores inserted to the mem dependence unit. (Count)
system.cpu.MemDepUnit__2.conflictingLoads            0                       # Number of conflicting loads. (Count)
system.cpu.MemDepUnit__2.conflictingStores            0                       # Number of conflicting stores. (Count)
system.cpu.MemDepUnit__3.insertedLoads              0                       # Number of loads inserted to the mem dependence unit. (Count)
system.cpu.MemDepUnit__3.insertedStores             0                       # Number of stores inserted to the mem dependence unit. (Count)
system.cpu.MemDepUnit__3.conflictingLoads            0                       # Number of conflicting loads. (Count)
system.cpu.MemDepUnit__3.conflictingStores            0                       # Number of conflicting stores. (Count)
system.cpu.branchPred.lookups                  526801                       # Number of BP lookups (Count)
system.cpu.branchPred.condPredicted            390533                       # Number of conditional branches predicted (Count)
system.cpu.branchPred.condIncorrect             19824                       # Number of conditional branches incorrect (Count)
system.cpu.branchPred.BTBLookups               251211                       # Number of BTB lookups (Count)
system.cpu.branchPred.BTBHits                  243012                       # Number of BTB hits (Count)
system.cpu.branchPred.BTBHitRatio            0.967362                       # BTB Hit Ratio (Ratio)
system.cpu.branchPred.RASUsed                   45281                       # Number of times the RAS was used to get a target. (Count)
system.cpu.branchPred.RASIncorrect                 38                       # Number of incorrect RAS predictions. (Count)
system.cpu.branchPred.indirectLookups           18218                       # Number of indirect predictor lookups. (Count)
system.cpu.branchPred.indirectHits              12159                       # Number of indirect target hits. (Count)
system.cpu.branchPred.indirectMisses             6059                       # Number of indirect misses. (Count)
system.cpu.branchPred.indirectMispredicted         1502                       # Number of mispredicted indirect branches. (Count)
system.cpu.commit.commitSquashedInsts          860099                       # The number of squashed insts skipped by commit (Count)
system.cpu.commit.commitNonSpecStalls            1494                       # The number of times commit has been forced to stall to communicate backwards (Count)
system.cpu.commit.branchMispredicts             17739                       # The number of times a branch was mispredicted (Count)
system.cpu.commit.numCommittedDist::samples      2200413                       # Number of insts commited each cycle (Count)
system.cpu.commit.numCommittedDist::mean     1.410595                       # Number of insts commited each cycle (Count)
system.cpu.commit.numCommittedDist::stdev     2.435119                       # Number of insts commited each cycle (Count)
system.cpu.commit.numCommittedDist::underflows            0      0.00%      0.00% # Number of insts commited each cycle (Count)
system.cpu.commit.numCommittedDist::0         1381772     62.80%     62.80% # Number of insts commited each cycle (Count)
system.cpu.commit.numCommittedDist::1          221716     10.08%     72.87% # Number of insts commited each cycle (Count)
system.cpu.commit.numCommittedDist::2          104694      4.76%     77.63% # Number of insts commited each cycle (Count)
system.cpu.commit.numCommittedDist::3          158326      7.20%     84.83% # Number of insts commited each cycle (Count)
system.cpu.commit.numCommittedDist::4           63370      2.88%     87.71% # Number of insts commited each cycle (Count)
system.cpu.commit.numCommittedDist::5           44942      2.04%     89.75% # Number of insts commited each cycle (Count)
system.cpu.commit.numCommittedDist::6           31187      1.42%     91.17% # Number of insts commited each cycle (Count)
system.cpu.commit.numCommittedDist::7           22751      1.03%     92.20% # Number of insts commited each cycle (Count)
system.cpu.commit.numCommittedDist::8          171655      7.80%    100.00% # Number of insts commited each cycle (Count)
system.cpu.commit.numCommittedDist::overflows            0      0.00%    100.00% # Number of insts commited each cycle (Count)
system.cpu.commit.numCommittedDist::min_value            0                       # Number of insts commited each cycle (Count)
system.cpu.commit.numCommittedDist::max_value            8                       # Number of insts commited each cycle (Count)
system.cpu.commit.numCommittedDist::total      2200413                       # Number of insts commited each cycle (Count)
system.cpu.commit.instsCommitted              1574793                       # Number of instructions committed (Count)
system.cpu.commit.opsCommitted                3103891                       # Number of ops (including micro ops) committed (Count)
system.cpu.commit.memRefs                      691196                       # Number of memory references committed (Count)
system.cpu.commit.loads                        438410                       # Number of loads committed (Count)
system.cpu.commit.amos                              0                       # Number of atomic instructions committed (Count)
system.cpu.commit.membars                         660                       # Number of memory barriers committed (Count)
system.cpu.commit.branches                     375003                       # Number of branches committed (Count)
system.cpu.commit.vectorInstructions                0                       # Number of committed Vector instructions. (Count)
system.cpu.commit.floating                      57086                       # Number of committed floating point instructions. (Count)
system.cpu.commit.integer                     3054046                       # Number of committed integer instructions. (Count)
system.cpu.commit.functionCalls                 34753                       # Number of function calls committed. (Count)
system.cpu.commit.committedInstType_0::No_OpClass         5954      0.19%      0.19% # Class of committed instruction (Count)
system.cpu.commit.committedInstType_0::IntAlu      2356137     75.91%     76.10% # Class of committed instruction (Count)
system.cpu.commit.committedInstType_0::IntMult         2164      0.07%     76.17% # Class of committed instruction (Count)
system.cpu.commit.committedInstType_0::IntDiv        27831      0.90%     77.07% # Class of committed instruction (Count)
system.cpu.commit.committedInstType_0::FloatAdd         2057      0.07%     77.13% # Class of committed instruction (Count)
system.cpu.commit.committedInstType_0::FloatCmp            0      0.00%     77.13% # Class of committed instruction (Count)
system.cpu.commit.committedInstType_0::FloatCvt          896      0.03%     77.16% # Class of committed instruction (Count)
system.cpu.commit.committedInstType_0::FloatMult            0      0.00%     77.16% # Class of committed instruction (Count)
system.cpu.commit.committedInstType_0::FloatMultAcc            0      0.00%     77.16% # Class of committed instruction (Count)
system.cpu.commit.committedInstType_0::FloatDiv            0      0.00%     77.16% # Class of committed instruction (Count)
system.cpu.commit.committedInstType_0::FloatMisc            0      0.00%     77.16% # Class of committed instruction (Count)
system.cpu.commit.committedInstType_0::FloatSqrt            0      0.00%     77.16% # Class of committed instruction (Count)
system.cpu.commit.committedInstType_0::SimdAdd           94      0.00%     77.17% # Class of committed instruction (Count)
system.cpu.commit.committedInstType_0::SimdAddAcc            0      0.00%     77.17% # Class of committed instruction (Count)
system.cpu.commit.committedInstType_0::SimdAlu         2425      0.08%     77.24% # Class of committed instruction (Count)
system.cpu.commit.committedInstType_0::SimdCmp            0      0.00%     77.24% # Class of committed instruction (Count)
system.cpu.commit.committedInstType_0::SimdCvt         2396      0.08%     77.32% # Class of committed instruction (Count)
system.cpu.commit.committedInstType_0::SimdMisc        11058      0.36%     77.68% # Class of committed instruction (Count)
system.cpu.commit.committedInstType_0::SimdMult            0      0.00%     77.68% # Class of committed instruction (Count)
system.cpu.commit.committedInstType_0::SimdMultAcc            0      0.00%     77.68% # Class of committed instruction (Count)
system.cpu.commit.committedInstType_0::SimdShift           15      0.00%     77.68% # Class of committed instruction (Count)
system.cpu.commit.committedInstType_0::SimdShiftAcc            0      0.00%     77.68% # Class of committed instruction (Count)
system.cpu.commit.committedInstType_0::SimdDiv            0      0.00%     77.68% # Class of committed instruction (Count)
system.cpu.commit.committedInstType_0::SimdSqrt            0      0.00%     77.68% # Class of committed instruction (Count)
system.cpu.commit.committedInstType_0::SimdFloatAdd          882      0.03%     77.71% # Class of committed instruction (Count)
system.cpu.commit.committedInstType_0::SimdFloatAlu            0      0.00%     77.71% # Class of committed instruction (Count)
system.cpu.commit.committedInstType_0::SimdFloatCmp            0      0.00%     77.71% # Class of committed instruction (Count)
system.cpu.commit.committedInstType_0::SimdFloatCvt          786      0.03%     77.73% # Class of committed instruction (Count)
system.cpu.commit.committedInstType_0::SimdFloatDiv            0      0.00%     77.73% # Class of committed instruction (Count)
system.cpu.commit.committedInstType_0::SimdFloatMisc            0      0.00%     77.73% # Class of committed instruction (Count)
system.cpu.commit.committedInstType_0::SimdFloatMult            0      0.00%     77.73% # Class of committed instruction (Count)
system.cpu.commit.committedInstType_0::SimdFloatMultAcc            0      0.00%     77.73% # Class of committed instruction (Count)
system.cpu.commit.committedInstType_0::SimdFloatSqrt            0      0.00%     77.73% # Class of committed instruction (Count)
system.cpu.commit.committedInstType_0::SimdReduceAdd            0      0.00%     77.73% # Class of committed instruction (Count)
system.cpu.commit.committedInstType_0::SimdReduceAlu            0      0.00%     77.73% # Class of committed instruction (Count)
system.cpu.commit.committedInstType_0::SimdReduceCmp            0      0.00%     77.73% # Class of committed instruction (Count)
system.cpu.commit.committedInstType_0::SimdFloatReduceAdd            0      0.00%     77.73% # Class of committed instruction (Count)
system.cpu.commit.committedInstType_0::SimdFloatReduceCmp            0      0.00%     77.73% # Class of committed instruction (Count)
system.cpu.commit.committedInstType_0::SimdAes            0      0.00%     77.73% # Class of committed instruction (Count)
system.cpu.commit.committedInstType_0::SimdAesMix            0      0.00%     77.73% # Class of committed instruction (Count)
system.cpu.commit.committedInstType_0::SimdSha1Hash            0      0.00%     77.73% # Class of committed instruction (Count)
system.cpu.commit.committedInstType_0::SimdSha1Hash2            0      0.00%     77.73% # Class of committed instruction (Count)
system.cpu.commit.committedInstType_0::SimdSha256Hash            0      0.00%     77.73% # Class of committed instruction (Count)
system.cpu.commit.committedInstType_0::SimdSha256Hash2            0      0.00%     77.73% # Class of committed instruction (Count)
system.cpu.commit.committedInstType_0::SimdShaSigma2            0      0.00%     77.73% # Class of committed instruction (Count)
system.cpu.commit.committedInstType_0::SimdShaSigma3            0      0.00%     77.73% # Class of committed instruction (Count)
system.cpu.commit.committedInstType_0::SimdPredAlu            0      0.00%     77.73% # Class of committed instruction (Count)
system.cpu.commit.committedInstType_0::MemRead       430522     13.87%     91.60% # Class of committed instruction (Count)
system.cpu.commit.committedInstType_0::MemWrite       226020      7.28%     98.88% # Class of committed instruction (Count)
system.cpu.commit.committedInstType_0::FloatMemRead         7888      0.25%     99.14% # Class of committed instruction (Count)
system.cpu.commit.committedInstType_0::FloatMemWrite        26766      0.86%    100.00% # Class of committed instruction (Count)
system.cpu.commit.committedInstType_0::IprAccess            0      0.00%    100.00% # Class of committed instruction (Count)
system.cpu.commit.committedInstType_0::InstPrefetch            0      0.00%    100.00% # Class of committed instruction (Count)
system.cpu.commit.committedInstType_0::total      3103891                       # Class of committed instruction (Count)
system.cpu.commit.commitEligibleSamples        171655                       # number cycles where commit BW limit reached (Cycle)
system.cpu.dcache.demandHits::cpu.data         667353                       # number of demand (read+write) hits (Count)
system.cpu.dcache.demandHits::total            667353                       # number of demand (read+write) hits (Count)
system.cpu.dcache.overallHits::cpu.data        667353                       # number of overall hits (Count)
system.cpu.dcache.overallHits::total           667353                       # number of overall hits (Count)
system.cpu.dcache.demandMisses::cpu.data        29703                       # number of demand (read+write) misses (Count)
system.cpu.dcache.demandMisses::total           29703                       # number of demand (read+write) misses (Count)
system.cpu.dcache.overallMisses::cpu.data        29703                       # number of overall misses (Count)
system.cpu.dcache.overallMisses::total          29703                       # number of overall misses (Count)
system.cpu.dcache.demandMissLatency::cpu.data   1770247480                       # number of demand (read+write) miss ticks (Tick)
system.cpu.dcache.demandMissLatency::total   1770247480                       # number of demand (read+write) miss ticks (Tick)
system.cpu.dcache.overallMissLatency::cpu.data   1770247480                       # number of overall miss ticks (Tick)
system.cpu.dcache.overallMissLatency::total   1770247480                       # number of overall miss ticks (Tick)
system.cpu.dcache.demandAccesses::cpu.data       697056                       # number of demand (read+write) accesses (Count)
system.cpu.dcache.demandAccesses::total        697056                       # number of demand (read+write) accesses (Count)
system.cpu.dcache.overallAccesses::cpu.data       697056                       # number of overall (read+write) accesses (Count)
system.cpu.dcache.overallAccesses::total       697056                       # number of overall (read+write) accesses (Count)
system.cpu.dcache.demandMissRate::cpu.data     0.042612                       # miss rate for demand accesses (Ratio)
system.cpu.dcache.demandMissRate::total      0.042612                       # miss rate for demand accesses (Ratio)
system.cpu.dcache.overallMissRate::cpu.data     0.042612                       # miss rate for overall accesses (Ratio)
system.cpu.dcache.overallMissRate::total     0.042612                       # miss rate for overall accesses (Ratio)
system.cpu.dcache.demandAvgMissLatency::cpu.data 59598.272228                       # average overall miss latency in ticks ((Tick/Count))
system.cpu.dcache.demandAvgMissLatency::total 59598.272228                       # average overall miss latency in ticks ((Tick/Count))
system.cpu.dcache.overallAvgMissLatency::cpu.data 59598.272228                       # average overall miss latency ((Tick/Count))
system.cpu.dcache.overallAvgMissLatency::total 59598.272228                       # average overall miss latency ((Tick/Count))
system.cpu.dcache.blockedCycles::no_mshrs        29907                       # number of cycles access was blocked (Cycle)
system.cpu.dcache.blockedCycles::no_targets          916                       # number of cycles access was blocked (Cycle)
system.cpu.dcache.blockedCauses::no_mshrs          593                       # number of times access was blocked (Count)
system.cpu.dcache.blockedCauses::no_targets            7                       # number of times access was blocked (Count)
system.cpu.dcache.avgBlocked::no_mshrs      50.433390                       # average number of cycles each access was blocked ((Cycle/Count))
system.cpu.dcache.avgBlocked::no_targets   130.857143                       # average number of cycles each access was blocked ((Cycle/Count))
system.cpu.dcache.writebacks::writebacks         5627                       # number of writebacks (Count)
system.cpu.dcache.writebacks::total              5627                       # number of writebacks (Count)
system.cpu.dcache.demandMshrHits::cpu.data        16354                       # number of demand (read+write) MSHR hits (Count)
system.cpu.dcache.demandMshrHits::total         16354                       # number of demand (read+write) MSHR hits (Count)
system.cpu.dcache.overallMshrHits::cpu.data        16354                       # number of overall MSHR hits (Count)
system.cpu.dcache.overallMshrHits::total        16354                       # number of overall MSHR hits (Count)
system.cpu.dcache.demandMshrMisses::cpu.data        13349                       # number of demand (read+write) MSHR misses (Count)
system.cpu.dcache.demandMshrMisses::total        13349                       # number of demand (read+write) MSHR misses (Count)
system.cpu.dcache.overallMshrMisses::cpu.data        13349                       # number of overall MSHR misses (Count)
system.cpu.dcache.overallMshrMisses::total        13349                       # number of overall MSHR misses (Count)
system.cpu.dcache.demandMshrMissLatency::cpu.data    869436980                       # number of demand (read+write) MSHR miss ticks (Tick)
system.cpu.dcache.demandMshrMissLatency::total    869436980                       # number of demand (read+write) MSHR miss ticks (Tick)
system.cpu.dcache.overallMshrMissLatency::cpu.data    869436980                       # number of overall MSHR miss ticks (Tick)
system.cpu.dcache.overallMshrMissLatency::total    869436980                       # number of overall MSHR miss ticks (Tick)
system.cpu.dcache.demandMshrMissRate::cpu.data     0.019151                       # mshr miss ratio for demand accesses (Ratio)
system.cpu.dcache.demandMshrMissRate::total     0.019151                       # mshr miss ratio for demand accesses (Ratio)
system.cpu.dcache.overallMshrMissRate::cpu.data     0.019151                       # mshr miss ratio for overall accesses (Ratio)
system.cpu.dcache.overallMshrMissRate::total     0.019151                       # mshr miss ratio for overall accesses (Ratio)
system.cpu.dcache.demandAvgMshrMissLatency::cpu.data 65131.244288                       # average overall mshr miss latency ((Tick/Count))
system.cpu.dcache.demandAvgMshrMissLatency::total 65131.244288                       # average overall mshr miss latency ((Tick/Count))
system.cpu.dcache.overallAvgMshrMissLatency::cpu.data 65131.244288                       # average overall mshr miss latency ((Tick/Count))
system.cpu.dcache.overallAvgMshrMissLatency::total 65131.244288                       # average overall mshr miss latency ((Tick/Count))
system.cpu.dcache.replacements                  12830                       # number of replacements (Count)
system.cpu.dcache.LockedRMWReadReq.hits::cpu.data          330                       # number of LockedRMWReadReq hits (Count)
system.cpu.dcache.LockedRMWReadReq.hits::total          330                       # number of LockedRMWReadReq hits (Count)
system.cpu.dcache.LockedRMWReadReq.accesses::cpu.data          330                       # number of LockedRMWReadReq accesses(hits+misses) (Count)
system.cpu.dcache.LockedRMWReadReq.accesses::total          330                       # number of LockedRMWReadReq accesses(hits+misses) (Count)
system.cpu.dcache.LockedRMWReadReq.mshrMissLatency::cpu.data       990500                       # number of LockedRMWReadReq MSHR miss ticks (Tick)
system.cpu.dcache.LockedRMWReadReq.mshrMissLatency::total       990500                       # number of LockedRMWReadReq MSHR miss ticks (Tick)
system.cpu.dcache.LockedRMWReadReq.avgMshrMissLatency::cpu.data          inf                       # average LockedRMWReadReq mshr miss latency ((Tick/Count))
system.cpu.dcache.LockedRMWReadReq.avgMshrMissLatency::total          inf                       # average LockedRMWReadReq mshr miss latency ((Tick/Count))
system.cpu.dcache.LockedRMWWriteReq.hits::cpu.data          330                       # number of LockedRMWWriteReq hits (Count)
system.cpu.dcache.LockedRMWWriteReq.hits::total          330                       # number of LockedRMWWriteReq hits (Count)
system.cpu.dcache.LockedRMWWriteReq.accesses::cpu.data          330                       # number of LockedRMWWriteReq accesses(hits+misses) (Count)
system.cpu.dcache.LockedRMWWriteReq.accesses::total          330                       # number of LockedRMWWriteReq accesses(hits+misses) (Count)
system.cpu.dcache.ReadReq.hits::cpu.data       419922                       # number of ReadReq hits (Count)
system.cpu.dcache.ReadReq.hits::total          419922                       # number of ReadReq hits (Count)
system.cpu.dcache.ReadReq.misses::cpu.data        24636                       # number of ReadReq misses (Count)
system.cpu.dcache.ReadReq.misses::total         24636                       # number of ReadReq misses (Count)
system.cpu.dcache.ReadReq.missLatency::cpu.data   1468028500                       # number of ReadReq miss ticks (Tick)
system.cpu.dcache.ReadReq.missLatency::total   1468028500                       # number of ReadReq miss ticks (Tick)
system.cpu.dcache.ReadReq.accesses::cpu.data       444558                       # number of ReadReq accesses(hits+misses) (Count)
system.cpu.dcache.ReadReq.accesses::total       444558                       # number of ReadReq accesses(hits+misses) (Count)
system.cpu.dcache.ReadReq.missRate::cpu.data     0.055417                       # miss rate for ReadReq accesses (Ratio)
system.cpu.dcache.ReadReq.missRate::total     0.055417                       # miss rate for ReadReq accesses (Ratio)
system.cpu.dcache.ReadReq.avgMissLatency::cpu.data 59588.752233                       # average ReadReq miss latency ((Tick/Count))
system.cpu.dcache.ReadReq.avgMissLatency::total 59588.752233                       # average ReadReq miss latency ((Tick/Count))
system.cpu.dcache.ReadReq.mshrHits::cpu.data        16329                       # number of ReadReq MSHR hits (Count)
system.cpu.dcache.ReadReq.mshrHits::total        16329                       # number of ReadReq MSHR hits (Count)
system.cpu.dcache.ReadReq.mshrMisses::cpu.data         8307                       # number of ReadReq MSHR misses (Count)
system.cpu.dcache.ReadReq.mshrMisses::total         8307                       # number of ReadReq MSHR misses (Count)
system.cpu.dcache.ReadReq.mshrMissLatency::cpu.data    573562000                       # number of ReadReq MSHR miss ticks (Tick)
system.cpu.dcache.ReadReq.mshrMissLatency::total    573562000                       # number of ReadReq MSHR miss ticks (Tick)
system.cpu.dcache.ReadReq.mshrMissRate::cpu.data     0.018686                       # mshr miss rate for ReadReq accesses (Ratio)
system.cpu.dcache.ReadReq.mshrMissRate::total     0.018686                       # mshr miss rate for ReadReq accesses (Ratio)
system.cpu.dcache.ReadReq.avgMshrMissLatency::cpu.data 69045.624172                       # average ReadReq mshr miss latency ((Tick/Count))
system.cpu.dcache.ReadReq.avgMshrMissLatency::total 69045.624172                       # average ReadReq mshr miss latency ((Tick/Count))
system.cpu.dcache.WriteReq.hits::cpu.data       247431                       # number of WriteReq hits (Count)
system.cpu.dcache.WriteReq.hits::total         247431                       # number of WriteReq hits (Count)
system.cpu.dcache.WriteReq.misses::cpu.data         5067                       # number of WriteReq misses (Count)
system.cpu.dcache.WriteReq.misses::total         5067                       # number of WriteReq misses (Count)
system.cpu.dcache.WriteReq.missLatency::cpu.data    302218980                       # number of WriteReq miss ticks (Tick)
system.cpu.dcache.WriteReq.missLatency::total    302218980                       # number of WriteReq miss ticks (Tick)
system.cpu.dcache.WriteReq.accesses::cpu.data       252498                       # number of WriteReq accesses(hits+misses) (Count)
system.cpu.dcache.WriteReq.accesses::total       252498                       # number of WriteReq accesses(hits+misses) (Count)
system.cpu.dcache.WriteReq.missRate::cpu.data     0.020067                       # miss rate for WriteReq accesses (Ratio)
system.cpu.dcache.WriteReq.missRate::total     0.020067                       # miss rate for WriteReq accesses (Ratio)
system.cpu.dcache.WriteReq.avgMissLatency::cpu.data 59644.558911                       # average WriteReq miss latency ((Tick/Count))
system.cpu.dcache.WriteReq.avgMissLatency::total 59644.558911                       # average WriteReq miss latency ((Tick/Count))
system.cpu.dcache.WriteReq.mshrHits::cpu.data           25                       # number of WriteReq MSHR hits (Count)
system.cpu.dcache.WriteReq.mshrHits::total           25                       # number of WriteReq MSHR hits (Count)
system.cpu.dcache.WriteReq.mshrMisses::cpu.data         5042                       # number of WriteReq MSHR misses (Count)
system.cpu.dcache.WriteReq.mshrMisses::total         5042                       # number of WriteReq MSHR misses (Count)
system.cpu.dcache.WriteReq.mshrMissLatency::cpu.data    295874980                       # number of WriteReq MSHR miss ticks (Tick)
system.cpu.dcache.WriteReq.mshrMissLatency::total    295874980                       # number of WriteReq MSHR miss ticks (Tick)
system.cpu.dcache.WriteReq.mshrMissRate::cpu.data     0.019968                       # mshr miss rate for WriteReq accesses (Ratio)
system.cpu.dcache.WriteReq.mshrMissRate::total     0.019968                       # mshr miss rate for WriteReq accesses (Ratio)
system.cpu.dcache.WriteReq.avgMshrMissLatency::cpu.data 58682.066640                       # average WriteReq mshr miss latency ((Tick/Count))
system.cpu.dcache.WriteReq.avgMshrMissLatency::total 58682.066640                       # average WriteReq mshr miss latency ((Tick/Count))
system.cpu.dcache.power_state.pwrStateResidencyTicks::UNDEFINED   1301064500                       # Cumulative time (in ticks) in various power states (Tick)
system.cpu.dcache.tags.tagsInUse           501.139765                       # Average ticks per tags in use ((Tick/Count))
system.cpu.dcache.tags.totalRefs               681362                       # Total number of references to valid blocks. (Count)
system.cpu.dcache.tags.sampledRefs              13342                       # Sample count of references to valid blocks. (Count)
system.cpu.dcache.tags.avgRefs              51.068955                       # Average number of references to valid blocks. ((Count/Count))
system.cpu.dcache.tags.warmupTick              148000                       # The tick when the warmup percentage was hit. (Tick)
system.cpu.dcache.tags.occupancies::cpu.data   501.139765                       # Average occupied blocks per tick, per requestor ((Count/Tick))
system.cpu.dcache.tags.avgOccs::cpu.data     0.978789                       # Average percentage of cache occupancy ((Ratio/Tick))
system.cpu.dcache.tags.avgOccs::total        0.978789                       # Average percentage of cache occupancy ((Ratio/Tick))
system.cpu.dcache.tags.occupanciesTaskId::1024          512                       # Occupied blocks per task id (Count)
system.cpu.dcache.tags.ageTaskId_1024::0          118                       # Occupied blocks per task id, per block age (Count)
system.cpu.dcache.tags.ageTaskId_1024::1          375                       # Occupied blocks per task id, per block age (Count)
system.cpu.dcache.tags.ageTaskId_1024::2           19                       # Occupied blocks per task id, per block age (Count)
system.cpu.dcache.tags.ratioOccsTaskId::1024            1                       # Ratio of occupied blocks and all blocks, per task id (Ratio)
system.cpu.dcache.tags.tagAccesses            5595070                       # Number of tag accesses (Count)
system.cpu.dcache.tags.dataAccesses           5595070                       # Number of data accesses (Count)
system.cpu.dcache.tags.power_state.pwrStateResidencyTicks::UNDEFINED   1301064500                       # Cumulative time (in ticks) in various power states (Tick)
system.cpu.decode.idleCycles                   421354                       # Number of cycles decode is idle (Cycle)
system.cpu.decode.blockedCycles               1225340                       # Number of cycles decode is blocked (Cycle)
system.cpu.decode.runCycles                    599249                       # Number of cycles decode is running (Cycle)
system.cpu.decode.unblockCycles                 57716                       # Number of cycles decode is unblocking (Cycle)
system.cpu.decode.squashCycles                  18346                       # Number of cycles decode is squashing (Cycle)
system.cpu.decode.branchResolved               231623                       # Number of times decode resolved a branch (Count)
system.cpu.decode.branchMispred                  2804                       # Number of times decode detected a branch misprediction (Count)
system.cpu.decode.decodedInsts                4160071                       # Number of instructions handled by decode (Count)
system.cpu.decode.squashedInsts                 10493                       # Number of squashed instructions handled by decode (Count)
system.cpu.dtb_walker_cache.blockedCycles::no_mshrs            0                       # number of cycles access was blocked (Cycle)
system.cpu.dtb_walker_cache.blockedCycles::no_targets            0                       # number of cycles access was blocked (Cycle)
system.cpu.dtb_walker_cache.blockedCauses::no_mshrs            0                       # number of times access was blocked (Count)
system.cpu.dtb_walker_cache.blockedCauses::no_targets            0                       # number of times access was blocked (Count)
system.cpu.dtb_walker_cache.avgBlocked::no_mshrs          nan                       # average number of cycles each access was blocked ((Cycle/Count))
system.cpu.dtb_walker_cache.avgBlocked::no_targets          nan                       # average number of cycles each access was blocked ((Cycle/Count))
system.cpu.dtb_walker_cache.replacements            0                       # number of replacements (Count)
system.cpu.dtb_walker_cache.power_state.pwrStateResidencyTicks::UNDEFINED   1301064500                       # Cumulative time (in ticks) in various power states (Tick)
system.cpu.dtb_walker_cache.tags.tagsInUse            0                       # Average ticks per tags in use ((Tick/Count))
system.cpu.dtb_walker_cache.tags.totalRefs            0                       # Total number of references to valid blocks. (Count)
system.cpu.dtb_walker_cache.tags.sampledRefs            0                       # Sample count of references to valid blocks. (Count)
system.cpu.dtb_walker_cache.tags.avgRefs          nan                       # Average number of references to valid blocks. ((Count/Count))
system.cpu.dtb_walker_cache.tags.warmupTick            0                       # The tick when the warmup percentage was hit. (Tick)
system.cpu.dtb_walker_cache.tags.tagAccesses            0                       # Number of tag accesses (Count)
system.cpu.dtb_walker_cache.tags.dataAccesses            0                       # Number of data accesses (Count)
system.cpu.dtb_walker_cache.tags.power_state.pwrStateResidencyTicks::UNDEFINED   1301064500                       # Cumulative time (in ticks) in various power states (Tick)
system.cpu.fetch.icacheStallCycles             462781                       # Number of cycles fetch is stalled on an Icache miss (Cycle)
system.cpu.fetch.insts                        2240101                       # Number of instructions fetch has processed (Count)
system.cpu.fetch.branches                      526801                       # Number of branches that fetch encountered (Count)
system.cpu.fetch.predictedBranches             300452                       # Number of branches that fetch has predicted taken (Count)
system.cpu.fetch.cycles                       1832278                       # Number of cycles fetch has run and was not squashing or blocked (Cycle)
system.cpu.fetch.squashCycles                   42192                       # Number of cycles fetch has spent squashing (Cycle)
system.cpu.fetch.miscStallCycles                  713                       # Number of cycles fetch has spent waiting on interrupts, or bad addresses, or out of MSHRs (Cycle)
system.cpu.fetch.pendingTrapStallCycles          5123                       # Number of stall cycles due to pending traps (Cycle)
system.cpu.fetch.icacheWaitRetryStallCycles           14                       # Number of stall cycles due to full MSHR (Cycle)
system.cpu.fetch.cacheLines                    333067                       # Number of cache lines fetched (Count)
system.cpu.fetch.icacheSquashes                  5812                       # Number of outstanding Icache misses that were squashed (Count)
system.cpu.fetch.nisnDist::samples            2322005                       # Number of instructions fetched each cycle (Total) (Count)
system.cpu.fetch.nisnDist::mean              1.882497                       # Number of instructions fetched each cycle (Total) (Count)
system.cpu.fetch.nisnDist::stdev             3.103812                       # Number of instructions fetched each cycle (Total) (Count)
system.cpu.fetch.nisnDist::underflows               0      0.00%      0.00% # Number of instructions fetched each cycle (Total) (Count)
system.cpu.fetch.nisnDist::0                  1587713     68.38%     68.38% # Number of instructions fetched each cycle (Total) (Count)
system.cpu.fetch.nisnDist::1                    53642      2.31%     70.69% # Number of instructions fetched each cycle (Total) (Count)
system.cpu.fetch.nisnDist::2                    51229      2.21%     72.89% # Number of instructions fetched each cycle (Total) (Count)
system.cpu.fetch.nisnDist::3                    62831      2.71%     75.60% # Number of instructions fetched each cycle (Total) (Count)
system.cpu.fetch.nisnDist::4                    65838      2.84%     78.43% # Number of instructions fetched each cycle (Total) (Count)
system.cpu.fetch.nisnDist::5                    37670      1.62%     80.06% # Number of instructions fetched each cycle (Total) (Count)
system.cpu.fetch.nisnDist::6                    44190      1.90%     81.96% # Number of instructions fetched each cycle (Total) (Count)
system.cpu.fetch.nisnDist::7                    41403      1.78%     83.74% # Number of instructions fetched each cycle (Total) (Count)
system.cpu.fetch.nisnDist::8                   377489     16.26%    100.00% # Number of instructions fetched each cycle (Total) (Count)
system.cpu.fetch.nisnDist::overflows                0      0.00%    100.00% # Number of instructions fetched each cycle (Total) (Count)
system.cpu.fetch.nisnDist::min_value                0                       # Number of instructions fetched each cycle (Total) (Count)
system.cpu.fetch.nisnDist::max_value                8                       # Number of instructions fetched each cycle (Total) (Count)
system.cpu.fetch.nisnDist::total              2322005                       # Number of instructions fetched each cycle (Total) (Count)
system.cpu.fetch.branchRate                  0.202450                       # Number of branch fetches per cycle (Ratio)
system.cpu.fetch.rate                        0.860872                       # Number of inst fetches per cycle ((Count/Cycle))
system.cpu.icache.demandHits::cpu.inst         328119                       # number of demand (read+write) hits (Count)
system.cpu.icache.demandHits::total            328119                       # number of demand (read+write) hits (Count)
system.cpu.icache.overallHits::cpu.inst        328119                       # number of overall hits (Count)
system.cpu.icache.overallHits::total           328119                       # number of overall hits (Count)
system.cpu.icache.demandMisses::cpu.inst         4948                       # number of demand (read+write) misses (Count)
system.cpu.icache.demandMisses::total            4948                       # number of demand (read+write) misses (Count)
system.cpu.icache.overallMisses::cpu.inst         4948                       # number of overall misses (Count)
system.cpu.icache.overallMisses::total           4948                       # number of overall misses (Count)
system.cpu.icache.demandMissLatency::cpu.inst    307509999                       # number of demand (read+write) miss ticks (Tick)
system.cpu.icache.demandMissLatency::total    307509999                       # number of demand (read+write) miss ticks (Tick)
system.cpu.icache.overallMissLatency::cpu.inst    307509999                       # number of overall miss ticks (Tick)
system.cpu.icache.overallMissLatency::total    307509999                       # number of overall miss ticks (Tick)
system.cpu.icache.demandAccesses::cpu.inst       333067                       # number of demand (read+write) accesses (Count)
system.cpu.icache.demandAccesses::total        333067                       # number of demand (read+write) accesses (Count)
system.cpu.icache.overallAccesses::cpu.inst       333067                       # number of overall (read+write) accesses (Count)
system.cpu.icache.overallAccesses::total       333067                       # number of overall (read+write) accesses (Count)
system.cpu.icache.demandMissRate::cpu.inst     0.014856                       # miss rate for demand accesses (Ratio)
system.cpu.icache.demandMissRate::total      0.014856                       # miss rate for demand accesses (Ratio)
system.cpu.icache.overallMissRate::cpu.inst     0.014856                       # miss rate for overall accesses (Ratio)
system.cpu.icache.overallMissRate::total     0.014856                       # miss rate for overall accesses (Ratio)
system.cpu.icache.demandAvgMissLatency::cpu.inst 62148.342563                       # average overall miss latency in ticks ((Tick/Count))
system.cpu.icache.demandAvgMissLatency::total 62148.342563                       # average overall miss latency in ticks ((Tick/Count))
system.cpu.icache.overallAvgMissLatency::cpu.inst 62148.342563                       # average overall miss latency ((Tick/Count))
system.cpu.icache.overallAvgMissLatency::total 62148.342563                       # average overall miss latency ((Tick/Count))
system.cpu.icache.blockedCycles::no_mshrs          345                       # number of cycles access was blocked (Cycle)
system.cpu.icache.blockedCycles::no_targets            0                       # number of cycles access was blocked (Cycle)
system.cpu.icache.blockedCauses::no_mshrs            9                       # number of times access was blocked (Count)
system.cpu.icache.blockedCauses::no_targets            0                       # number of times access was blocked (Count)
system.cpu.icache.avgBlocked::no_mshrs      38.333333                       # average number of cycles each access was blocked ((Cycle/Count))
system.cpu.icache.avgBlocked::no_targets          nan                       # average number of cycles each access was blocked ((Cycle/Count))
system.cpu.icache.writebacks::writebacks         3541                       # number of writebacks (Count)
system.cpu.icache.writebacks::total              3541                       # number of writebacks (Count)
system.cpu.icache.demandMshrHits::cpu.inst          888                       # number of demand (read+write) MSHR hits (Count)
system.cpu.icache.demandMshrHits::total           888                       # number of demand (read+write) MSHR hits (Count)
system.cpu.icache.overallMshrHits::cpu.inst          888                       # number of overall MSHR hits (Count)
system.cpu.icache.overallMshrHits::total          888                       # number of overall MSHR hits (Count)
system.cpu.icache.demandMshrMisses::cpu.inst         4060                       # number of demand (read+write) MSHR misses (Count)
system.cpu.icache.demandMshrMisses::total         4060                       # number of demand (read+write) MSHR misses (Count)
system.cpu.icache.overallMshrMisses::cpu.inst         4060                       # number of overall MSHR misses (Count)
system.cpu.icache.overallMshrMisses::total         4060                       # number of overall MSHR misses (Count)
system.cpu.icache.demandMshrMissLatency::cpu.inst    261253499                       # number of demand (read+write) MSHR miss ticks (Tick)
system.cpu.icache.demandMshrMissLatency::total    261253499                       # number of demand (read+write) MSHR miss ticks (Tick)
system.cpu.icache.overallMshrMissLatency::cpu.inst    261253499                       # number of overall MSHR miss ticks (Tick)
system.cpu.icache.overallMshrMissLatency::total    261253499                       # number of overall MSHR miss ticks (Tick)
system.cpu.icache.demandMshrMissRate::cpu.inst     0.012190                       # mshr miss ratio for demand accesses (Ratio)
system.cpu.icache.demandMshrMissRate::total     0.012190                       # mshr miss ratio for demand accesses (Ratio)
system.cpu.icache.overallMshrMissRate::cpu.inst     0.012190                       # mshr miss ratio for overall accesses (Ratio)
system.cpu.icache.overallMshrMissRate::total     0.012190                       # mshr miss ratio for overall accesses (Ratio)
system.cpu.icache.demandAvgMshrMissLatency::cpu.inst 64348.152463                       # average overall mshr miss latency ((Tick/Count))
system.cpu.icache.demandAvgMshrMissLatency::total 64348.152463                       # average overall mshr miss latency ((Tick/Count))
system.cpu.icache.overallAvgMshrMissLatency::cpu.inst 64348.152463                       # average overall mshr miss latency ((Tick/Count))
system.cpu.icache.overallAvgMshrMissLatency::total 64348.152463                       # average overall mshr miss latency ((Tick/Count))
system.cpu.icache.replacements                   3541                       # number of replacements (Count)
system.cpu.icache.ReadReq.hits::cpu.inst       328119                       # number of ReadReq hits (Count)
system.cpu.icache.ReadReq.hits::total          328119                       # number of ReadReq hits (Count)
system.cpu.icache.ReadReq.misses::cpu.inst         4948                       # number of ReadReq misses (Count)
system.cpu.icache.ReadReq.misses::total          4948                       # number of ReadReq misses (Count)
system.cpu.icache.ReadReq.missLatency::cpu.inst    307509999                       # number of ReadReq miss ticks (Tick)
system.cpu.icache.ReadReq.missLatency::total    307509999                       # number of ReadReq miss ticks (Tick)
system.cpu.icache.ReadReq.accesses::cpu.inst       333067                       # number of ReadReq accesses(hits+misses) (Count)
system.cpu.icache.ReadReq.accesses::total       333067                       # number of ReadReq accesses(hits+misses) (Count)
system.cpu.icache.ReadReq.missRate::cpu.inst     0.014856                       # miss rate for ReadReq accesses (Ratio)
system.cpu.icache.ReadReq.missRate::total     0.014856                       # miss rate for ReadReq accesses (Ratio)
system.cpu.icache.ReadReq.avgMissLatency::cpu.inst 62148.342563                       # average ReadReq miss latency ((Tick/Count))
system.cpu.icache.ReadReq.avgMissLatency::total 62148.342563                       # average ReadReq miss latency ((Tick/Count))
system.cpu.icache.ReadReq.mshrHits::cpu.inst          888                       # number of ReadReq MSHR hits (Count)
system.cpu.icache.ReadReq.mshrHits::total          888                       # number of ReadReq MSHR hits (Count)
system.cpu.icache.ReadReq.mshrMisses::cpu.inst         4060                       # number of ReadReq MSHR misses (Count)
system.cpu.icache.ReadReq.mshrMisses::total         4060                       # number of ReadReq MSHR misses (Count)
system.cpu.icache.ReadReq.mshrMissLatency::cpu.inst    261253499                       # number of ReadReq MSHR miss ticks (Tick)
system.cpu.icache.ReadReq.mshrMissLatency::total    261253499                       # number of ReadReq MSHR miss ticks (Tick)
system.cpu.icache.ReadReq.mshrMissRate::cpu.inst     0.012190                       # mshr miss rate for ReadReq accesses (Ratio)
system.cpu.icache.ReadReq.mshrMissRate::total     0.012190                       # mshr miss rate for ReadReq accesses (Ratio)
system.cpu.icache.ReadReq.avgMshrMissLatency::cpu.inst 64348.152463                       # average ReadReq mshr miss latency ((Tick/Count))
system.cpu.icache.ReadReq.avgMshrMissLatency::total 64348.152463                       # average ReadReq mshr miss latency ((Tick/Count))
system.cpu.icache.power_state.pwrStateResidencyTicks::UNDEFINED   1301064500                       # Cumulative time (in ticks) in various power states (Tick)
system.cpu.icache.tags.tagsInUse           500.797633                       # Average ticks per tags in use ((Tick/Count))
system.cpu.icache.tags.totalRefs               332178                       # Total number of references to valid blocks. (Count)
system.cpu.icache.tags.sampledRefs               4059                       # Sample count of references to valid blocks. (Count)
system.cpu.icache.tags.avgRefs              81.837398                       # Average number of references to valid blocks. ((Count/Count))
system.cpu.icache.tags.warmupTick               77000                       # The tick when the warmup percentage was hit. (Tick)
system.cpu.icache.tags.occupancies::cpu.inst   500.797633                       # Average occupied blocks per tick, per requestor ((Count/Tick))
system.cpu.icache.tags.avgOccs::cpu.inst     0.978120                       # Average percentage of cache occupancy ((Ratio/Tick))
system.cpu.icache.tags.avgOccs::total        0.978120                       # Average percentage of cache occupancy ((Ratio/Tick))
system.cpu.icache.tags.occupanciesTaskId::1024          512                       # Occupied blocks per task id (Count)
system.cpu.icache.tags.ageTaskId_1024::0           66                       # Occupied blocks per task id, per block age (Count)
system.cpu.icache.tags.ageTaskId_1024::1          198                       # Occupied blocks per task id, per block age (Count)
system.cpu.icache.tags.ageTaskId_1024::2          242                       # Occupied blocks per task id, per block age (Count)
system.cpu.icache.tags.ageTaskId_1024::3            6                       # Occupied blocks per task id, per block age (Count)
system.cpu.icache.tags.ratioOccsTaskId::1024            1                       # Ratio of occupied blocks and all blocks, per task id (Ratio)
system.cpu.icache.tags.tagAccesses            2668595                       # Number of tag accesses (Count)
system.cpu.icache.tags.dataAccesses           2668595                       # Number of data accesses (Count)
system.cpu.icache.tags.power_state.pwrStateResidencyTicks::UNDEFINED   1301064500                       # Cumulative time (in ticks) in various power states (Tick)
system.cpu.iew.reusedInsts                     498350                       # Number of instructions reused (Cycle)
system.cpu.iew.reusedFloatInsts                 14520                       # Number of float instructions reused (Cycle)
system.cpu.iew.reusedIntInsts                  483830                       # Number of int instructions reused (Cycle)
system.cpu.iew.reusedVecInsts                       0                       # Number of vector instructions reused (Cycle)
system.cpu.iew.idleCycles                           0                       # Number of cycles IEW is idle (Cycle)
system.cpu.iew.squashCycles                     18346                       # Number of cycles IEW is squashing (Cycle)
system.cpu.iew.blockCycles                     318582                       # Number of cycles IEW is blocking (Cycle)
system.cpu.iew.unblockCycles                   212682                       # Number of cycles IEW is unblocking (Cycle)
system.cpu.iew.dispatchedInsts                3969419                       # Number of instructions dispatched to IQ (Count)
system.cpu.iew.dispSquashedInsts                 1298                       # Number of squashed instructions skipped by dispatch (Count)
system.cpu.iew.dispLoadInsts                   567423                       # Number of dispatched load instructions (Count)
system.cpu.iew.dispStoreInsts                  305013                       # Number of dispatched store instructions (Count)
system.cpu.iew.dispNonSpecInsts                  1232                       # Number of dispatched non-speculative instructions (Count)
system.cpu.iew.iqFullEvents                      2266                       # Number of times the IQ has become full, causing a stall (Count)
system.cpu.iew.lsqFullEvents                   208845                       # Number of times the LSQ has become full, causing a stall (Count)
system.cpu.iew.memOrderViolationEvents            348                       # Number of memory order violations (Count)
system.cpu.iew.predictedTakenIncorrect           7379                       # Number of branches that were predicted taken incorrectly (Count)
system.cpu.iew.predictedNotTakenIncorrect        12090                       # Number of branches that were predicted not taken incorrectly (Count)
system.cpu.iew.branchMispredicts                19469                       # Number of branch mispredicts detected at execute (Count)
system.cpu.iew.instsToCommit                  3635484                       # Cumulative count of insts sent to commit (Count)
system.cpu.iew.writebackCount                 3626257                       # Cumulative count of insts written-back (Count)
system.cpu.iew.producerInst                   2578223                       # Number of instructions producing a value (Count)
system.cpu.iew.consumerInst                   4338543                       # Number of instructions consuming a value (Count)
system.cpu.iew.wbRate                        1.393573                       # Insts written-back per cycle ((Count/Cycle))
system.cpu.iew.wbFanout                      0.594260                       # Average fanout of values written-back ((Count/Count))
system.cpu.interrupts.clk_domain.clock           8000                       # Clock period in ticks (Tick)
system.cpu.itb_walker_cache.blockedCycles::no_mshrs            0                       # number of cycles access was blocked (Cycle)
system.cpu.itb_walker_cache.blockedCycles::no_targets            0                       # number of cycles access was blocked (Cycle)
system.cpu.itb_walker_cache.blockedCauses::no_mshrs            0                       # number of times access was blocked (Count)
system.cpu.itb_walker_cache.blockedCauses::no_targets            0                       # number of times access was blocked (Count)
system.cpu.itb_walker_cache.avgBlocked::no_mshrs          nan                       # average number of cycles each access was blocked ((Cycle/Count))
system.cpu.itb_walker_cache.avgBlocked::no_targets          nan                       # average number of cycles each access was blocked ((Cycle/Count))
system.cpu.itb_walker_cache.replacements            0                       # number of replacements (Count)
system.cpu.itb_walker_cache.power_state.pwrStateResidencyTicks::UNDEFINED   1301064500                       # Cumulative time (in ticks) in various power states (Tick)
system.cpu.itb_walker_cache.tags.tagsInUse            0                       # Average ticks per tags in use ((Tick/Count))
system.cpu.itb_walker_cache.tags.totalRefs            0                       # Total number of references to valid blocks. (Count)
system.cpu.itb_walker_cache.tags.sampledRefs            0                       # Sample count of references to valid blocks. (Count)
system.cpu.itb_walker_cache.tags.avgRefs          nan                       # Average number of references to valid blocks. ((Count/Count))
system.cpu.itb_walker_cache.tags.warmupTick            0                       # The tick when the warmup percentage was hit. (Tick)
system.cpu.itb_walker_cache.tags.tagAccesses            0                       # Number of tag accesses (Count)
system.cpu.itb_walker_cache.tags.dataAccesses            0                       # Number of data accesses (Count)
system.cpu.itb_walker_cache.tags.power_state.pwrStateResidencyTicks::UNDEFINED   1301064500                       # Cumulative time (in ticks) in various power states (Tick)
system.cpu.lsq0.forwLoads                       78716                       # Number of loads that had data forwarded from stores (Count)
system.cpu.lsq0.squashedLoads                  129013                       # Number of loads squashed (Count)
system.cpu.lsq0.ignoredResponses                  317                       # Number of memory responses ignored because the instruction is squashed (Count)
system.cpu.lsq0.memOrderViolation                 348                       # Number of memory ordering violations (Count)
system.cpu.lsq0.squashedStores                  52227                       # Number of stores squashed (Count)
[...]
system.mem_ctrls.dram.bwTotal::writebacks    276794886                       # Total bandwidth to/from this memory ((Byte/Second))
system.mem_ctrls.dram.bwTotal::cpu.inst     199270674                       # Total bandwidth to/from this memory ((Byte/Second))
system.mem_ctrls.dram.bwTotal::cpu.data     656299515                       # Total bandwidth to/from this memory ((Byte/Second))
system.mem_ctrls.dram.bwTotal::total       1132365075                       # Total bandwidth to/from this memory ((Byte/Second))
system.mem_ctrls.dram.readBursts                17080                       # Number of DRAM read bursts (Count)
system.mem_ctrls.dram.writeBursts                9134                       # Number of DRAM write bursts (Count)
system.mem_ctrls.dram.perBankRdBursts::0         1275                       # Per bank write bursts (Count)
system.mem_ctrls.dram.perBankRdBursts::1          995                       # Per bank write bursts (Count)
system.mem_ctrls.dram.perBankRdBursts::2          795                       # Per bank write bursts (Count)
system.mem_ctrls.dram.perBankRdBursts::3         1252                       # Per bank write bursts (Count)
system.mem_ctrls.dram.perBankRdBursts::4         1398                       # Per bank write bursts (Count)
system.mem_ctrls.dram.perBankRdBursts::5         1731                       # Per bank write bursts (Count)
system.mem_ctrls.dram.perBankRdBursts::6         1138                       # Per bank write bursts (Count)
system.mem_ctrls.dram.perBankRdBursts::7         1125                       # Per bank write bursts (Count)
system.mem_ctrls.dram.perBankRdBursts::8          554                       # Per bank write bursts (Count)
system.mem_ctrls.dram.perBankRdBursts::9          987                       # Per bank write bursts (Count)
system.mem_ctrls.dram.perBankRdBursts::10         1100                       # Per bank write bursts (Count)
system.mem_ctrls.dram.perBankRdBursts::11          931                       # Per bank write bursts (Count)
system.mem_ctrls.dram.perBankRdBursts::12          636                       # Per bank write bursts (Count)
system.mem_ctrls.dram.perBankRdBursts::13         1039                       # Per bank write bursts (Count)
system.mem_ctrls.dram.perBankRdBursts::14         1301                       # Per bank write bursts (Count)
system.mem_ctrls.dram.perBankRdBursts::15          823                       # Per bank write bursts (Count)
system.mem_ctrls.dram.perBankWrBursts::0          263                       # Per bank write bursts (Count)
system.mem_ctrls.dram.perBankWrBursts::1          332                       # Per bank write bursts (Count)
system.mem_ctrls.dram.perBankWrBursts::2          401                       # Per bank write bursts (Count)
system.mem_ctrls.dram.perBankWrBursts::3         1106                       # Per bank write bursts (Count)
system.mem_ctrls.dram.perBankWrBursts::4         1129                       # Per bank write bursts (Count)
system.mem_ctrls.dram.perBankWrBursts::5         1144                       # Per bank write bursts (Count)
system.mem_ctrls.dram.perBankWrBursts::6          632                       # Per bank write bursts (Count)
system.mem_ctrls.dram.perBankWrBursts::7          845                       # Per bank write bursts (Count)
system.mem_ctrls.dram.perBankWrBursts::8          253                       # Per bank write bursts (Count)
system.mem_ctrls.dram.perBankWrBursts::9          549                       # Per bank write bursts (Count)
system.mem_ctrls.dram.perBankWrBursts::10          444                       # Per bank write bursts (Count)
system.mem_ctrls.dram.perBankWrBursts::11          203                       # Per bank write bursts (Count)
system.mem_ctrls.dram.perBankWrBursts::12          100                       # Per bank write bursts (Count)
system.mem_ctrls.dram.perBankWrBursts::13          600                       # Per bank write bursts (Count)
system.mem_ctrls.dram.perBankWrBursts::14          767                       # Per bank write bursts (Count)
system.mem_ctrls.dram.perBankWrBursts::15          366                       # Per bank write bursts (Count)
system.mem_ctrls.dram.totQLat               256486500                       # Total ticks spent queuing (Tick)
system.mem_ctrls.dram.totBusLat              85400000                       # Total ticks spent in databus transfers (Tick)
system.mem_ctrls.dram.totMemAccLat          576736500                       # Total ticks spent from burst creation until serviced by the DRAM (Tick)
system.mem_ctrls.dram.avgQLat                15016.77                       # Average queueing delay per DRAM burst ((Tick/Count))
system.mem_ctrls.dram.avgBusLat               5000.00                       # Average bus latency per DRAM burst ((Tick/Count))
system.mem_ctrls.dram.avgMemAccLat           33766.77                       # Average memory access latency per DRAM burst ((Tick/Count))
system.mem_ctrls.dram.readRowHits               12009                       # Number of row buffer hits during reads (Count)
system.mem_ctrls.dram.writeRowHits               6779                       # Number of row buffer hits during writes (Count)
system.mem_ctrls.dram.readRowHitRate            70.31                       # Row buffer hit rate for reads (Ratio)
system.mem_ctrls.dram.writeRowHitRate           74.22                       # Row buffer hit rate for writes (Ratio)
system.mem_ctrls.dram.bytesPerActivate::samples         7423                       # Bytes accessed per row activation (Byte)
system.mem_ctrls.dram.bytesPerActivate::mean   225.883874                       # Bytes accessed per row activation (Byte)
system.mem_ctrls.dram.bytesPerActivate::gmean   143.009921                       # Bytes accessed per row activation (Byte)
system.mem_ctrls.dram.bytesPerActivate::stdev   260.863866                       # Bytes accessed per row activation (Byte)
system.mem_ctrls.dram.bytesPerActivate::0-127         3189     42.96%     42.96% # Bytes accessed per row activation (Byte)
system.mem_ctrls.dram.bytesPerActivate::128-255         2172     29.26%     72.22% # Bytes accessed per row activation (Byte)
system.mem_ctrls.dram.bytesPerActivate::256-383          742     10.00%     82.22% # Bytes accessed per row activation (Byte)
system.mem_ctrls.dram.bytesPerActivate::384-511          392      5.28%     87.50% # Bytes accessed per row activation (Byte)
system.mem_ctrls.dram.bytesPerActivate::512-639          196      2.64%     90.14% # Bytes accessed per row activation (Byte)
system.mem_ctrls.dram.bytesPerActivate::640-767          133      1.79%     91.93% # Bytes accessed per row activation (Byte)
system.mem_ctrls.dram.bytesPerActivate::768-895           90      1.21%     93.14% # Bytes accessed per row activation (Byte)
system.mem_ctrls.dram.bytesPerActivate::896-1023           67      0.90%     94.05% # Bytes accessed per row activation (Byte)
system.mem_ctrls.dram.bytesPerActivate::1024-1151          442      5.95%    100.00% # Bytes accessed per row activation (Byte)
system.mem_ctrls.dram.bytesPerActivate::total         7423                       # Bytes accessed per row activation (Byte)
system.mem_ctrls.dram.bytesRead               1093120                       # Total bytes read (Byte)
system.mem_ctrls.dram.bytesWritten             584576                       # Total bytes written (Byte)
system.mem_ctrls.dram.avgRdBW              840.173566                       # Average DRAM read bandwidth in MiBytes/s ((Byte/Second))
system.mem_ctrls.dram.avgWrBW              449.305934                       # Average DRAM write bandwidth in MiBytes/s ((Byte/Second))
system.mem_ctrls.dram.peakBW                 12800.00                       # Theoretical peak bandwidth in MiByte/s ((Byte/Second))
system.mem_ctrls.dram.busUtil                   10.07                       # Data bus utilization in percentage (Ratio)
system.mem_ctrls.dram.busUtilRead                6.56                       # Data bus utilization in percentage for reads (Ratio)
system.mem_ctrls.dram.busUtilWrite               3.51                       # Data bus utilization in percentage for writes (Ratio)
system.mem_ctrls.dram.pageHitRate               71.67                       # Row buffer hit rate, read and write combined (Ratio)
system.mem_ctrls.dram.power_state.pwrStateResidencyTicks::UNDEFINED   1301064500                       # Cumulative time (in ticks) in various power states (Tick)
system.mem_ctrls.dram.rank0.actEnergy        26853540                       # Energy for activate commands per rank (pJ) (Joule)
system.mem_ctrls.dram.rank0.preEnergy        14272995                       # Energy for precharge commands per rank (pJ) (Joule)
system.mem_ctrls.dram.rank0.readEnergy       69322260                       # Energy for read commands per rank (pJ) (Joule)
system.mem_ctrls.dram.rank0.writeEnergy      30547440                       # Energy for write commands per rank (pJ) (Joule)
system.mem_ctrls.dram.rank0.refreshEnergy 102644880.000000                       # Energy for refresh commands per rank (pJ) (Joule)
system.mem_ctrls.dram.rank0.actBackEnergy    530810220                       # Energy for active background per rank (pJ) (Joule)
system.mem_ctrls.dram.rank0.preBackEnergy     52610880                       # Energy for precharge background per rank (pJ) (Joule)
system.mem_ctrls.dram.rank0.actPowerDownEnergy            0                       # Energy for active power-down per rank (pJ) (Joule)
system.mem_ctrls.dram.rank0.prePowerDownEnergy            0                       # Energy for precharge power-down per rank (pJ) (Joule)
system.mem_ctrls.dram.rank0.selfRefreshEnergy            0                       # Energy for self refresh per rank (pJ) (Joule)
system.mem_ctrls.dram.rank0.totalEnergy     827062215                       # Total energy per rank (pJ) (Joule)
system.mem_ctrls.dram.rank0.averagePower   635.681179                       # Core power per rank (mW) (Watt)
system.mem_ctrls.dram.rank0.totalIdleTime            0                       # Total Idle time Per DRAM Rank (Tick)
system.mem_ctrls.dram.rank0.pwrStateTime::IDLE    131933250                       # Time in different power states (Tick)
system.mem_ctrls.dram.rank0.pwrStateTime::REF     43420000                       # Time in different power states (Tick)
system.mem_ctrls.dram.rank0.pwrStateTime::SREF            0                       # Time in different power states (Tick)
system.mem_ctrls.dram.rank0.pwrStateTime::PRE_PDN            0                       # Time in different power states (Tick)
system.mem_ctrls.dram.rank0.pwrStateTime::ACT   1125711250                       # Time in different power states (Tick)
system.mem_ctrls.dram.rank0.pwrStateTime::ACT_PDN            0                       # Time in different power states (Tick)
system.mem_ctrls.dram.rank1.actEnergy        26168100                       # Energy for activate commands per rank (pJ) (Joule)
system.mem_ctrls.dram.rank1.preEnergy        13897290                       # Energy for precharge commands per rank (pJ) (Joule)
system.mem_ctrls.dram.rank1.readEnergy       52628940                       # Energy for read commands per rank (pJ) (Joule)
system.mem_ctrls.dram.rank1.writeEnergy      17132040                       # Energy for write commands per rank (pJ) (Joule)
system.mem_ctrls.dram.rank1.refreshEnergy 102644880.000000                       # Energy for refresh commands per rank (pJ) (Joule)
system.mem_ctrls.dram.rank1.actBackEnergy    543437430                       # Energy for active background per rank (pJ) (Joule)
system.mem_ctrls.dram.rank1.preBackEnergy     41977440                       # Energy for precharge background per rank (pJ) (Joule)
system.mem_ctrls.dram.rank1.actPowerDownEnergy            0                       # Energy for active power-down per rank (pJ) (Joule)
system.mem_ctrls.dram.rank1.prePowerDownEnergy            0                       # Energy for precharge power-down per rank (pJ) (Joule)
system.mem_ctrls.dram.rank1.selfRefreshEnergy            0                       # Energy for self refresh per rank (pJ) (Joule)
system.mem_ctrls.dram.rank1.totalEnergy     797886120                       # Total energy per rank (pJ) (Joule)
system.mem_ctrls.dram.rank1.averagePower   613.256391                       # Core power per rank (mW) (Watt)
system.mem_ctrls.dram.rank1.totalIdleTime            0                       # Total Idle time Per DRAM Rank (Tick)
system.mem_ctrls.dram.rank1.pwrStateTime::IDLE    103828000                       # Time in different power states (Tick)
system.mem_ctrls.dram.rank1.pwrStateTime::REF     43420000                       # Time in different power states (Tick)
system.mem_ctrls.dram.rank1.pwrStateTime::SREF            0                       # Time in different power states (Tick)
system.mem_ctrls.dram.rank1.pwrStateTime::PRE_PDN            0                       # Time in different power states (Tick)
system.mem_ctrls.dram.rank1.pwrStateTime::ACT   1153816500                       # Time in different power states (Tick)
system.mem_ctrls.dram.rank1.pwrStateTime::ACT_PDN            0                       # Time in different power states (Tick)
system.mem_ctrls.power_state.pwrStateResidencyTicks::UNDEFINED   1301064500                       # Cumulative time (in ticks) in various power states (Tick)
system.membus.transDist::ReadResp               12364                       # Transaction distribution (Count)
system.membus.transDist::WritebackDirty          5627                       # Transaction distribution (Count)
system.membus.transDist::WritebackClean          3541                       # Transaction distribution (Count)
system.membus.transDist::CleanEvict              7203                       # Transaction distribution (Count)
system.membus.transDist::UpgradeReq                 7                       # Transaction distribution (Count)
system.membus.transDist::ReadExReq               5037                       # Transaction distribution (Count)
system.membus.transDist::ReadExResp              5037                       # Transaction distribution (Count)
system.membus.transDist::ReadCleanReq            4060                       # Transaction distribution (Count)
system.membus.transDist::ReadSharedReq           8305                       # Transaction distribution (Count)
system.membus.pktCount_system.cpu.icache.mem_side_port::system.mem_ctrls.port        11652                       # Packet count per connected requestor and responder (Count)
system.membus.pktCount_system.cpu.icache.mem_side_port::total        11652                       # Packet count per connected requestor and responder (Count)
system.membus.pktCount_system.cpu.dcache.mem_side_port::system.mem_ctrls.port        39521                       # Packet count per connected requestor and responder (Count)
system.membus.pktCount_system.cpu.dcache.mem_side_port::total        39521                       # Packet count per connected requestor and responder (Count)
system.membus.pktCount::total                   51173                       # Packet count per connected requestor and responder (Count)
system.membus.pktSize_system.cpu.icache.mem_side_port::system.mem_ctrls.port       485888                       # Cumulative packet size per connected requestor and responder (Byte)
system.membus.pktSize_system.cpu.icache.mem_side_port::total       485888                       # Cumulative packet size per connected requestor and responder (Byte)
system.membus.pktSize_system.cpu.dcache.mem_side_port::system.mem_ctrls.port      1214016                       # Cumulative packet size per connected requestor and responder (Byte)
system.membus.pktSize_system.cpu.dcache.mem_side_port::total      1214016                       # Cumulative packet size per connected requestor and responder (Byte)
system.membus.pktSize::total                  1699904                       # Cumulative packet size per connected requestor and responder (Byte)
system.membus.snoops                                8                       # Total snoops (Count)
system.membus.snoopTraffic                        512                       # Total snoop traffic (Byte)
system.membus.snoopFanout::samples              17409                       # Request fanout histogram (Count)
system.membus.snoopFanout::mean              0.001493                       # Request fanout histogram (Count)
system.membus.snoopFanout::stdev             0.038618                       # Request fanout histogram (Count)
system.membus.snoopFanout::underflows               0      0.00%      0.00% # Request fanout histogram (Count)
system.membus.snoopFanout::0                    17383     99.85%     99.85% # Request fanout histogram (Count)
system.membus.snoopFanout::1                       26      0.15%    100.00% # Request fanout histogram (Count)
system.membus.snoopFanout::2                        0      0.00%    100.00% # Request fanout histogram (Count)
system.membus.snoopFanout::3                        0      0.00%    100.00% # Request fanout histogram (Count)
system.membus.snoopFanout::4                        0      0.00%    100.00% # Request fanout histogram (Count)
system.membus.snoopFanout::overflows                0      0.00%    100.00% # Request fanout histogram (Count)
system.membus.snoopFanout::min_value                0                       # Request fanout histogram (Count)
system.membus.snoopFanout::max_value                1                       # Request fanout histogram (Count)
system.membus.snoopFanout::total                17409                       # Request fanout histogram (Count)
system.membus.power_state.pwrStateResidencyTicks::UNDEFINED   1301064500                       # Cumulative time (in ticks) in various power states (Tick)
system.membus.reqLayer2.occupancy            72901000                       # Layer occupancy (ticks) (Tick)
system.membus.reqLayer2.utilization               0.1                       # Layer utilization (Ratio)
system.membus.respLayer1.occupancy           21615500                       # Layer occupancy (ticks) (Tick)
system.membus.respLayer1.utilization              0.0                       # Layer utilization (Ratio)
system.membus.respLayer2.occupancy           71297750                       # Layer occupancy (ticks) (Tick)
system.membus.respLayer2.utilization              0.1                       # Layer utilization (Ratio)
system.membus.snoop_filter.totRequests          33780                       # Total number of requests made to the snoop filter. (Count)
system.membus.snoop_filter.hitSingleRequests        16373                       # Number of requests hitting in the snoop filter with a single holder of the requested data. (Count)
system.membus.snoop_filter.hitMultiRequests           25                       # Number of requests hitting in the snoop filter with multiple (>1) holders of the requested data. (Count)
system.membus.snoop_filter.totSnoops                0                       # Total number of snoops made to the snoop filter. (Count)
system.membus.snoop_filter.hitSingleSnoops            0                       # Number of snoops hitting in the snoop filter with a single holder of the requested data. (Count)
system.membus.snoop_filter.hitMultiSnoops            0                       # Number of snoops hitting in the snoop filter with multiple (>1) holders of the requested data. (Count)
system.voltage_domain.voltage                       1                       # Voltage in Volts (Volt)
system.workload.inst.arm                            0                       # number of arm instructions executed (Count)
system.workload.inst.quiesce                        0                       # number of quiesce instructions executed (Count)

---------- End Simulation Statistics   ----------
