
---------- Begin Simulation Statistics ----------
simSeconds                                   0.000160                       # Number of seconds simulated (Second)
simTicks                                    160086000                       # Number of ticks simulated (Tick)
finalTick                                   160086000                       # Number of ticks from beginning of simulation (restored from checkpoints and never reset) (Tick)
simFreq                                  1000000000000                       # The number of ticks per simulated second ((Tick/Second))
hostSeconds                                      3.46                       # Real time elapsed on the host (Second)
hostTickRate                                 46263664                       # The number of ticks simulated per host second (ticks/s) ((Tick/Second))
hostMemory                                    8727436                       # Number of bytes of host memory used (Byte)
simInsts                                       122370                       # Number of instructions simulated (Count)
simOps                                         224694                       # Number of ops (including micro ops) simulated (Count)
hostInstRate                                    35357                       # Simulator instruction rate (inst/s) ((Count/Second))
hostOpRate                                      64921                       # Simulator op (including micro ops) rate (op/s) ((Count/Second))
system.clk_domain.clock                          1000                       # Clock period in ticks (Tick)
system.cpu.numCycles                           320173                       # Number of cpu cycles simulated (Cycle)
system.cpu.numWorkItemsStarted                      0                       # Number of work items this cpu started (Count)
system.cpu.numWorkItemsCompleted                    0                       # Number of work items this cpu completed (Count)
system.cpu.instsAdded                          365876                       # Number of instructions added to the IQ (excludes non-spec) (Count)
system.cpu.nonSpecInstsAdded                      138                       # Number of non-speculative instructions added to the IQ (Count)
system.cpu.instsIssued                         315212                       # Number of instructions issued (Count)
system.cpu.squashedInstsIssued                    344                       # Number of squashed instructions issued (Count)
system.cpu.squashedInstsExamined               141314                       # Number of squashed instructions iterated over during squash; mainly for profiling (Count)
system.cpu.squashedOperandsExamined            319427                       # Number of squashed operands that are examined and possibly removed from graph (Count)
system.cpu.squashedNonSpecRemoved                  84                       # Number of squashed non-spec instructions that were removed (Count)
system.cpu.numIssuedDist::samples              257504                       # Number of insts issued each cycle (Count)
system.cpu.numIssuedDist::mean               1.224105                       # Number of insts issued each cycle (Count)
system.cpu.numIssuedDist::stdev              1.991500                       # Number of insts issued each cycle (Count)
system.cpu.numIssuedDist::underflows                0      0.00%      0.00% # Number of insts issued each cycle (Count)
system.cpu.numIssuedDist::0                    163028     63.31%     63.31% # Number of insts issued each cycle (Count)
system.cpu.numIssuedDist::1                     20659      8.02%     71.33% # Number of insts issued each cycle (Count)
system.cpu.numIssuedDist::2                     17164      6.67%     78.00% # Number of insts issued each cycle (Count)
system.cpu.numIssuedDist::3                     16973      6.59%     84.59% # Number of insts issued each cycle (Count)
system.cpu.numIssuedDist::4                     13951      5.42%     90.01% # Number of insts issued each cycle (Count)
system.cpu.numIssuedDist::5                     10837      4.21%     94.22% # Number of insts issued each cycle (Count)
system.cpu.numIssuedDist::6                      7556      2.93%     97.15% # Number of insts issued each cycle (Count)
system.cpu.numIssuedDist::7                      4707      1.83%     98.98% # Number of insts issued each cycle (Count)
system.cpu.numIssuedDist::8                      2629      1.02%    100.00% # Number of insts issued each cycle (Count)
system.cpu.numIssuedDist::overflows                 0      0.00%    100.00% # Number of insts issued each cycle (Count)
system.cpu.numIssuedDist::min_value                 0                       # Number of insts issued each cycle (Count)
system.cpu.numIssuedDist::max_value                 8                       # Number of insts issued each cycle (Count)
system.cpu.numIssuedDist::total                257504                       # Number of insts issued each cycle (Count)
system.cpu.statFuBusy::No_OpClass                   0      0.00%      0.00% # attempts to use FU when none available (Count)
system.cpu.statFuBusy::IntAlu                    1769     51.85%     51.85% # attempts to use FU when none available (Count)
system.cpu.statFuBusy::IntMult                      0      0.00%     51.85% # attempts to use FU when none available (Count)
system.cpu.statFuBusy::IntDiv                       0      0.00%     51.85% # attempts to use FU when none available (Count)
system.cpu.statFuBusy::FloatAdd                     0      0.00%     51.85% # attempts to use FU when none available (Count)
system.cpu.statFuBusy::FloatCmp                     0      0.00%     51.85% # attempts to use FU when none available (Count)
system.cpu.statFuBusy::FloatCvt                     0      0.00%     51.85% # attempts to use FU when none available (Count)
system.cpu.statFuBusy::FloatMult                    0      0.00%     51.85% # attempts to use FU when none available (Count)
system.cpu.statFuBusy::FloatMultAcc                 0      0.00%     51.85% # attempts to use FU when none available (Count)
system.cpu.statFuBusy::FloatDiv                     0      0.00%     51.85% # attempts to use FU when none available (Count)
system.cpu.statFuBusy::FloatMisc                    0      0.00%     51.85% # attempts to use FU when none available (Count)
system.cpu.statFuBusy::FloatSqrt                    0      0.00%     51.85% # attempts to use FU when none available (Count)
system.cpu.statFuBusy::SimdAdd                      0      0.00%     51.85% # attempts to use FU when none available (Count)
system.cpu.statFuBusy::SimdAddAcc                   0      0.00%     51.85% # attempts to use FU when none available (Count)
system.cpu.statFuBusy::SimdAlu                      5      0.15%     51.99% # attempts to use FU when none available (Count)
system.cpu.statFuBusy::SimdCmp                      0      0.00%     51.99% # attempts to use FU when none available (Count)
system.cpu.statFuBusy::SimdCvt                      7      0.21%     52.20% # attempts to use FU when none available (Count)
system.cpu.statFuBusy::SimdMisc                     3      0.09%     52.29% # attempts to use FU when none available (Count)
system.cpu.statFuBusy::SimdMult                     0      0.00%     52.29% # attempts to use FU when none available (Count)
system.cpu.statFuBusy::SimdMultAcc                  0      0.00%     52.29% # attempts to use FU when none available (Count)
system.cpu.statFuBusy::SimdShift                    0      0.00%     52.29% # attempts to use FU when none available (Count)
system.cpu.statFuBusy::SimdShiftAcc                 0      0.00%     52.29% # attempts to use FU when none available (Count)
system.cpu.statFuBusy::SimdDiv                      0      0.00%     52.29% # attempts to use FU when none available (Count)
system.cpu.statFuBusy::SimdSqrt                     0      0.00%     52.29% # attempts to use FU when none available (Count)
system.cpu.statFuBusy::SimdFloatAdd                 0      0.00%     52.29% # attempts to use FU when none available (Count)
system.cpu.statFuBusy::SimdFloatAlu                 0      0.00%     52.29% # attempts to use FU when none available (Count)
system.cpu.statFuBusy::SimdFloatCmp                 0      0.00%     52.29% # attempts to use FU when none available (Count)
system.cpu.statFuBusy::SimdFloatCvt                 0      0.00%     52.29% # attempts to use FU when none available (Count)
system.cpu.statFuBusy::SimdFloatDiv                 0      0.00%     52.29% # attempts to use FU when none available (Count)
system.cpu.statFuBusy::SimdFloatMisc                0      0.00%     52.29% # attempts to use FU when none available (Count)
system.cpu.statFuBusy::SimdFloatMult                0      0.00%     52.29% # attempts to use FU when none available (Count)
system.cpu.statFuBusy::SimdFloatMultAcc             0      0.00%     52.29% # attempts to use FU when none available (Count)
system.cpu.statFuBusy::SimdFloatSqrt                0      0.00%     52.29% # attempts to use FU when none available (Count)
system.cpu.statFuBusy::SimdReduceAdd                0      0.00%     52.29% # attempts to use FU when none available (Count)
system.cpu.statFuBusy::SimdReduceAlu                0      0.00%     52.29% # attempts to use FU when none available (Count)
system.cpu.statFuBusy::SimdReduceCmp                0      0.00%     52.29% # attempts to use FU when none available (Count)
system.cpu.statFuBusy::SimdFloatReduceAdd            0      0.00%     52.29% # attempts to use FU when none available (Count)
system.cpu.statFuBusy::SimdFloatReduceCmp            0      0.00%     52.29% # attempts to use FU when none available (Count)
system.cpu.statFuBusy::SimdAes                      0      0.00%     52.29% # attempts to use FU when none available (Count)
system.cpu.statFuBusy::SimdAesMix                   0      0.00%     52.29% # attempts to use FU when none available (Count)
system.cpu.statFuBusy::SimdSha1Hash                 0      0.00%     52.29% # attempts to use FU when none available (Count)
system.cpu.statFuBusy::SimdSha1Hash2                0      0.00%     52.29% # attempts to use FU when none available (Count)
system.cpu.statFuBusy::SimdSha256Hash               0      0.00%     52.29% # attempts to use FU when none available (Count)
system.cpu.statFuBusy::SimdSha256Hash2              0      0.00%     52.29% # attempts to use FU when none available (Count)
system.cpu.statFuBusy::SimdShaSigma2                0      0.00%     52.29% # attempts to use FU when none available (Count)
system.cpu.statFuBusy::SimdShaSigma3                0      0.00%     52.29% # attempts to use FU when none available (Count)
system.cpu.statFuBusy::SimdPredAlu                  0      0.00%     52.29% # attempts to use FU when none available (Count)
system.cpu.statFuBusy::MemRead                    766     22.45%     74.74% # attempts to use FU when none available (Count)
system.cpu.statFuBusy::MemWrite                   827     24.24%     98.97% # attempts to use FU when none available (Count)
system.cpu.statFuBusy::FloatMemRead                25      0.73%     99.71% # attempts to use FU when none available (Count)
system.cpu.statFuBusy::FloatMemWrite               10      0.29%    100.00% # attempts to use FU when none available (Count)
system.cpu.statFuBusy::IprAccess                    0      0.00%    100.00% # attempts to use FU when none available (Count)
system.cpu.statFuBusy::InstPrefetch                 0      0.00%    100.00% # attempts to use FU when none available (Count)
system.cpu.statIssuedInstType_0::No_OpClass         1841      0.58%      0.58% # Number of instructions issued per FU type, per thread (Count)
system.cpu.statIssuedInstType_0::IntAlu        238543     75.68%     76.26% # Number of instructions issued per FU type, per thread (Count)
system.cpu.statIssuedInstType_0::IntMult           57      0.02%     76.28% # Number of instructions issued per FU type, per thread (Count)
system.cpu.statIssuedInstType_0::IntDiv          1928      0.61%     76.89% # Number of instructions issued per FU type, per thread (Count)
system.cpu.statIssuedInstType_0::FloatAdd           51      0.02%     76.91% # Number of instructions issued per FU type, per thread (Count)
system.cpu.statIssuedInstType_0::FloatCmp            0      0.00%     76.91% # Number of instructions issued per FU type, per thread (Count)
system.cpu.statIssuedInstType_0::FloatCvt           96      0.03%     76.94% # Number of instructions issued per FU type, per thread (Count)
system.cpu.statIssuedInstType_0::FloatMult            0      0.00%     76.94% # Number of instructions issued per FU type, per thread (Count)
system.cpu.statIssuedInstType_0::FloatMultAcc            0      0.00%     76.94% # Number of instructions issued per FU type, per thread (Count)
system.cpu.statIssuedInstType_0::FloatDiv            0      0.00%     76.94% # Number of instructions issued per FU type, per thread (Count)
system.cpu.statIssuedInstType_0::FloatMisc            0      0.00%     76.94% # Number of instructions issued per FU type, per thread (Count)
system.cpu.statIssuedInstType_0::FloatSqrt            0      0.00%     76.94% # Number of instructions issued per FU type, per thread (Count)
system.cpu.statIssuedInstType_0::SimdAdd            2      0.00%     76.94% # Number of instructions issued per FU type, per thread (Count)
system.cpu.statIssuedInstType_0::SimdAddAcc            0      0.00%     76.94% # Number of instructions issued per FU type, per thread (Count)
system.cpu.statIssuedInstType_0::SimdAlu           58      0.02%     76.96% # Number of instructions issued per FU type, per thread (Count)
system.cpu.statIssuedInstType_0::SimdCmp            0      0.00%     76.96% # Number of instructions issued per FU type, per thread (Count)
system.cpu.statIssuedInstType_0::SimdCvt           93      0.03%     76.99% # Number of instructions issued per FU type, per thread (Count)
system.cpu.statIssuedInstType_0::SimdMisc          111      0.04%     77.02% # Number of instructions issued per FU type, per thread (Count)
system.cpu.statIssuedInstType_0::SimdMult            0      0.00%     77.02% # Number of instructions issued per FU type, per thread (Count)
system.cpu.statIssuedInstType_0::SimdMultAcc            0      0.00%     77.02% # Number of instructions issued per FU type, per thread (Count)
system.cpu.statIssuedInstType_0::SimdShift            0      0.00%     77.02% # Number of instructions issued per FU type, per thread (Count)
system.cpu.statIssuedInstType_0::SimdShiftAcc            0      0.00%     77.02% # Number of instructions issued per FU type, per thread (Count)
system.cpu.statIssuedInstType_0::SimdDiv            0      0.00%     77.02% # Number of instructions issued per FU type, per thread (Count)
system.cpu.statIssuedInstType_0::SimdSqrt            0      0.00%     77.02% # Number of instructions issued per FU type, per thread (Count)
system.cpu.statIssuedInstType_0::SimdFloatAdd            0      0.00%     77.02% # Number of instructions issued per FU type, per thread (Count)
system.cpu.statIssuedInstType_0::SimdFloatAlu            0      0.00%     77.02% # Number of instructions issued per FU type, per thread (Count)
system.cpu.statIssuedInstType_0::SimdFloatCmp            0      0.00%     77.02% # Number of instructions issued per FU type, per thread (Count)
system.cpu.statIssuedInstType_0::SimdFloatCvt            0      0.00%     77.02% # Number of instructions issued per FU type, per thread (Count)
system.cpu.statIssuedInstType_0::SimdFloatDiv            0      0.00%     77.02% # Number of instructions issued per FU type, per thread (Count)
system.cpu.statIssuedInstType_0::SimdFloatMisc            0      0.00%     77.02% # Number of instructions issued per FU type, per thread (Count)
system.cpu.statIssuedInstType_0::SimdFloatMult            0      0.00%     77.02% # Number of instructions issued per FU type, per thread (Count)
system.cpu.statIssuedInstType_0::SimdFloatMultAcc            0      0.00%     77.02% # Number of instructions issued per FU type, per thread (Count)
system.cpu.statIssuedInstType_0::SimdFloatSqrt            0      0.00%     77.02% # Number of instructions issued per FU type, per thread (Count)
system.cpu.statIssuedInstType_0::SimdReduceAdd            0      0.00%     77.02% # Number of instructions issued per FU type, per thread (Count)
system.cpu.statIssuedInstType_0::SimdReduceAlu            0      0.00%     77.02% # Number of instructions issued per FU type, per thread (Count)
system.cpu.statIssuedInstType_0::SimdReduceCmp            0      0.00%     77.02% # Number of instructions issued per FU type, per thread (Count)
system.cpu.statIssuedInstType_0::SimdFloatReduceAdd            0      0.00%     77.02% # Number of instructions issued per FU type, per thread (Count)
system.cpu.statIssuedInstType_0::SimdFloatReduceCmp            0      0.00%     77.02% # Number of instructions issued per FU type, per thread (Count)
system.cpu.statIssuedInstType_0::SimdAes            0      0.00%     77.02% # Number of instructions issued per FU type, per thread (Count)
system.cpu.statIssuedInstType_0::SimdAesMix            0      0.00%     77.02% # Number of instructions issued per FU type, per thread (Count)
system.cpu.statIssuedInstType_0::SimdSha1Hash            0      0.00%     77.02% # Number of instructions issued per FU type, per thread (Count)
system.cpu.statIssuedInstType_0::SimdSha1Hash2            0      0.00%     77.02% # Number of instructions issued per FU type, per thread (Count)
system.cpu.statIssuedInstType_0::SimdSha256Hash            0      0.00%     77.02% # Number of instructions issued per FU type, per thread (Count)
system.cpu.statIssuedInstType_0::SimdSha256Hash2            0      0.00%     77.02% # Number of instructions issued per FU type, per thread (Count)
system.cpu.statIssuedInstType_0::SimdShaSigma2            0      0.00%     77.02% # Number of instructions issued per FU type, per thread (Count)
system.cpu.statIssuedInstType_0::SimdShaSigma3            0      0.00%     77.02% # Number of instructions issued per FU type, per thread (Count)
system.cpu.statIssuedInstType_0::SimdPredAlu            0      0.00%     77.02% # Number of instructions issued per FU type, per thread (Count)
system.cpu.statIssuedInstType_0::MemRead        49230     15.62%     92.64% # Number of instructions issued per FU type, per thread (Count)
system.cpu.statIssuedInstType_0::MemWrite        22705      7.20%     99.84% # Number of instructions issued per FU type, per thread (Count)
system.cpu.statIssuedInstType_0::FloatMemRead          278      0.09%     99.93% # Number of instructions issued per FU type, per thread (Count)
system.cpu.statIssuedInstType_0::FloatMemWrite          219      0.07%    100.00% # Number of instructions issued per FU type, per thread (Count)
system.cpu.statIssuedInstType_0::IprAccess            0      0.00%    100.00% # Number of instructions issued per FU type, per thread (Count)
system.cpu.statIssuedInstType_0::InstPrefetch            0      0.00%    100.00% # Number of instructions issued per FU type, per thread (Count)
system.cpu.statIssuedInstType_0::total         315212                       # Number of instructions issued per FU type, per thread (Count)
system.cpu.issueRate                         0.984505                       # Inst issue rate ((Count/Cycle))
system.cpu.fuBusy                                3412                       # FU busy when requested (Count)
system.cpu.fuBusyRate                        0.010824                       # FU busy rate (busy events/executed inst) ((Count/Count))
system.cpu.intInstQueueReads                   889741                       # Number of integer instruction queue reads (Count)
system.cpu.intInstQueueWrites                  506213                       # Number of integer instruction queue writes (Count)
system.cpu.intInstQueueWakeupAccesses          302423                       # Number of integer instruction queue wakeup accesses (Count)
system.cpu.fpInstQueueReads                      1943                       # Number of floating instruction queue reads (Count)
system.cpu.fpInstQueueWrites                     1203                       # Number of floating instruction queue writes (Count)
system.cpu.fpInstQueueWakeupAccesses              910                       # Number of floating instruction queue wakeup accesses (Count)
system.cpu.vecInstQueueReads                        0                       # Number of vector instruction queue reads (Count)
system.cpu.vecInstQueueWrites                       0                       # Number of vector instruction queue writes (Count)
system.cpu.vecInstQueueWakeupAccesses               0                       # Number of vector instruction queue wakeup accesses (Count)
system.cpu.intAluAccesses                      315789                       # Number of integer alu accesses (Count)
system.cpu.fpAluAccesses                          994                       # Number of floating point alu accesses (Count)
system.cpu.vecAluAccesses                           0                       # Number of vector alu accesses (Count)
system.cpu.numInsts                            309151                       # Number of executed instructions (Count)
system.cpu.numLoadInsts                         48234                       # Number of load instructions executed (Count)
system.cpu.numSquashedInsts                      6061                       # Number of squashed instructions skipped in execute (Count)
system.cpu.numSwp                                   0                       # Number of swp insts executed (Count)
system.cpu.numNop                                   0                       # Number of nop insts executed (Count)
system.cpu.numRefs                              70531                       # Number of memory reference insts executed (Count)
system.cpu.numBranches                          31753                       # Number of branches executed (Count)
system.cpu.numStoreInsts                        22297                       # Number of stores executed (Count)
system.cpu.numRate                           0.965575                       # Inst execution rate ((Count/Cycle))
system.cpu.timesIdled                             696                       # Number of times that the entire CPU went into an idle state and unscheduled itself (Count)
system.cpu.idleCycles                           62669                       # Total number of cycles that the CPU has spent unscheduled due to idling (Cycle)
system.cpu.committedInsts                      122370                       # Number of Instructions Simulated (Count)
system.cpu.committedOps                        224694                       # Number of Ops (including micro ops) Simulated (Count)
system.cpu.cpi                               2.616434                       # CPI: Cycles Per Instruction ((Cycle/Count))
system.cpu.totalCpi                          2.616434                       # CPI: Total CPI of All Threads ((Cycle/Count))
system.cpu.ipc                               0.382200                       # IPC: Instructions Per Cycle ((Count/Cycle))
system.cpu.totalIpc                          0.382200                       # IPC: Total IPC of All Threads ((Count/Cycle))
system.cpu.intRegfileReads                     458365                       # Number of integer regfile reads (Count)
system.cpu.intRegfileWrites                    228448                       # Number of integer regfile writes (Count)
system.cpu.fpRegfileReads                        1549                       # Number of floating regfile reads (Count)
system.cpu.fpRegfileWrites                        515                       # Number of floating regfile writes (Count)
system.cpu.ccRegfileReads                      166211                       # number of cc regfile reads (Count)
system.cpu.ccRegfileWrites                     109219                       # number of cc regfile writes (Count)
system.cpu.miscRegfileReads                    139127                       # number of misc regfile reads (Count)
system.cpu.miscRegfileWrites                       54                       # number of misc regfile writes (Count)
system.cpu.MemDepUnit__0.insertedLoads          55214                       # Number of loads inserted to the mem dependence unit. (Count)
system.cpu.MemDepUnit__0.insertedStores         25546                       # Number of stores inserted to the mem dependence unit. (Count)
system.cpu.MemDepUnit__0.conflictingLoads         1718                       # Number of conflicting loads. (Count)
system.cpu.MemDepUnit__0.conflictingStores          838                       # Number of conflicting stores. (Count)
system.cpu.MemDepUnit__1.insertedLoads              0                       # Number of loads inserted to the mem dependence unit. (Count)
system.cpu.MemDepUnit__1.insertedStores             0                       # Number of stores inserted to the mem dependence unit. (Count)
system.cpu.MemDepUnit__1.conflictingLoads            0                       # Number of conflicting loads. (Count)
system.cpu.MemDepUnit__1.conflictingStores            0                       # Number of conflicting stores. (Count)
system.cpu.MemDepUnit__2.insertedLoads              0                       # Number of loads inserted to the mem dependence unit. (Count)
system.cpu.MemDepUnit__2.insertedStores             0                       # Number of stores inserted to the mem dependence unit. (Count)
system.cpu.MemDepUnit__2.conflictingLoads            0                       # Number of conflicting loads. (Count)
system.cpu.MemDepUnit__2.conflictingStores            0                       # Number of conflicting stores. (Count)
system.cpu.MemDepUnit__3.insertedLoads              0                       # Number of loads inserted to the mem dependence unit. (Count)
system.cpu.MemDepUnit__3.insertedStores             0                       # Number of stores inserted to the mem dependence unit. (Count)
system.cpu.MemDepUnit__3.conflictingLoads            0                       # Number of conflicting loads. (Count)
system.cpu.MemDepUnit__3.conflictingStores            0                       # Number of conflicting stores. (Count)
system.cpu.branchPred.lookups                   52037                       # Number of BP lookups (Count)
system.cpu.branchPred.condPredicted             43581                       # Number of conditional branches predicted (Count)
system.cpu.branchPred.condIncorrect              3475                       # Number of conditional branches incorrect (Count)
system.cpu.branchPred.BTBLookups                24428                       # Number of BTB lookups (Count)
system.cpu.branchPred.BTBHits                   22327                       # Number of BTB hits (Count)
system.cpu.branchPred.BTBHitRatio            0.913992                       # BTB Hit Ratio (Ratio)
system.cpu.branchPred.RASUsed                    2660                       # Number of times the RAS was used to get a target. (Count)
system.cpu.branchPred.RASIncorrect                  3                       # Number of incorrect RAS predictions. (Count)
system.cpu.branchPred.indirectLookups            1042                       # Number of indirect predictor lookups. (Count)
system.cpu.branchPred.indirectHits                167                       # Number of indirect target hits. (Count)
system.cpu.branchPred.indirectMisses              875                       # Number of indirect misses. (Count)
system.cpu.branchPred.indirectMispredicted          215                       # Number of mispredicted indirect branches. (Count)
system.cpu.commit.commitSquashedInsts          138559                       # The number of squashed insts skipped by commit (Count)
system.cpu.commit.commitNonSpecStalls              54                       # The number of times commit has been forced to stall to communicate backwards (Count)
system.cpu.commit.branchMispredicts              3186                       # The number of times a branch was mispredicted (Count)
system.cpu.commit.numCommittedDist::samples       237488                       # Number of insts commited each cycle (Count)
system.cpu.commit.numCommittedDist::mean     0.946128                       # Number of insts commited each cycle (Count)
system.cpu.commit.numCommittedDist::stdev     1.967384                       # Number of insts commited each cycle (Count)
system.cpu.commit.numCommittedDist::underflows            0      0.00%      0.00% # Number of insts commited each cycle (Count)
system.cpu.commit.numCommittedDist::0          169696     71.45%     71.45% # Number of insts commited each cycle (Count)
system.cpu.commit.numCommittedDist::1           21094      8.88%     80.34% # Number of insts commited each cycle (Count)
system.cpu.commit.numCommittedDist::2            9317      3.92%     84.26% # Number of insts commited each cycle (Count)
system.cpu.commit.numCommittedDist::3           15332      6.46%     90.72% # Number of insts commited each cycle (Count)
system.cpu.commit.numCommittedDist::4            4298      1.81%     92.53% # Number of insts commited each cycle (Count)
system.cpu.commit.numCommittedDist::5            4972      2.09%     94.62% # Number of insts commited each cycle (Count)
system.cpu.commit.numCommittedDist::6            2121      0.89%     95.51% # Number of insts commited each cycle (Count)
system.cpu.commit.numCommittedDist::7            1072      0.45%     95.96% # Number of insts commited each cycle (Count)
system.cpu.commit.numCommittedDist::8            9586      4.04%    100.00% # Number of insts commited each cycle (Count)
system.cpu.commit.numCommittedDist::overflows            0      0.00%    100.00% # Number of insts commited each cycle (Count)
system.cpu.commit.numCommittedDist::min_value            0                       # Number of insts commited each cycle (Count)
system.cpu.commit.numCommittedDist::max_value            8                       # Number of insts commited each cycle (Count)
system.cpu.commit.numCommittedDist::total       237488                       # Number of insts commited each cycle (Count)
system.cpu.commit.instsCommitted               122370                       # Number of instructions committed (Count)
system.cpu.commit.opsCommitted                 224694                       # Number of ops (including micro ops) committed (Count)
system.cpu.commit.memRefs                       51092                       # Number of memory references committed (Count)
system.cpu.commit.loads                         33966                       # Number of loads committed (Count)
system.cpu.commit.amos                              0                       # Number of atomic instructions committed (Count)
system.cpu.commit.membars                           0                       # Number of memory barriers committed (Count)
system.cpu.commit.branches                      26703                       # Number of branches committed (Count)
system.cpu.commit.vectorInstructions                0                       # Number of committed Vector instructions. (Count)
system.cpu.commit.floating                        825                       # Number of committed floating point instructions. (Count)
system.cpu.commit.integer                      220920                       # Number of committed integer instructions. (Count)
system.cpu.commit.functionCalls                  1239                       # Number of function calls committed. (Count)
system.cpu.commit.committedInstType_0::No_OpClass          701      0.31%      0.31% # Class of committed instruction (Count)
system.cpu.commit.committedInstType_0::IntAlu       170782     76.01%     76.32% # Class of committed instruction (Count)
system.cpu.commit.committedInstType_0::IntMult           25      0.01%     76.33% # Class of committed instruction (Count)
system.cpu.commit.committedInstType_0::IntDiv         1732      0.77%     77.10% # Class of committed instruction (Count)
system.cpu.commit.committedInstType_0::FloatAdd           51      0.02%     77.12% # Class of committed instruction (Count)
system.cpu.commit.committedInstType_0::FloatCmp            0      0.00%     77.12% # Class of committed instruction (Count)
system.cpu.commit.committedInstType_0::FloatCvt           96      0.04%     77.17% # Class of committed instruction (Count)
system.cpu.commit.committedInstType_0::FloatMult            0      0.00%     77.17% # Class of committed instruction (Count)
system.cpu.commit.committedInstType_0::FloatMultAcc            0      0.00%     77.17% # Class of committed instruction (Count)
system.cpu.commit.committedInstType_0::FloatDiv            0      0.00%     77.17% # Class of committed instruction (Count)
system.cpu.commit.committedInstType_0::FloatMisc            0      0.00%     77.17% # Class of committed instruction (Count)
system.cpu.commit.committedInstType_0::FloatSqrt            0      0.00%     77.17% # Class of committed instruction (Count)
system.cpu.commit.committedInstType_0::SimdAdd            2      0.00%     77.17% # Class of committed instruction (Count)
system.cpu.commit.committedInstType_0::SimdAddAcc            0      0.00%     77.17% # Class of committed instruction (Count)
system.cpu.commit.committedInstType_0::SimdAlu           42      0.02%     77.19% # Class of committed instruction (Count)
system.cpu.commit.committedInstType_0::SimdCmp            0      0.00%     77.19% # Class of committed instruction (Count)
system.cpu.commit.committedInstType_0::SimdCvt           76      0.03%     77.22% # Class of committed instruction (Count)
system.cpu.commit.committedInstType_0::SimdMisc           95      0.04%     77.26% # Class of committed instruction (Count)
system.cpu.commit.committedInstType_0::SimdMult            0      0.00%     77.26% # Class of committed instruction (Count)
system.cpu.commit.committedInstType_0::SimdMultAcc            0      0.00%     77.26% # Class of committed instruction (Count)
system.cpu.commit.committedInstType_0::SimdShift            0      0.00%     77.26% # Class of committed instruction (Count)
system.cpu.commit.committedInstType_0::SimdShiftAcc            0      0.00%     77.26% # Class of committed instruction (Count)
system.cpu.commit.committedInstType_0::SimdDiv            0      0.00%     77.26% # Class of committed instruction (Count)
system.cpu.commit.committedInstType_0::SimdSqrt            0      0.00%     77.26% # Class of committed instruction (Count)
system.cpu.commit.committedInstType_0::SimdFloatAdd            0      0.00%     77.26% # Class of committed instruction (Count)
system.cpu.commit.committedInstType_0::SimdFloatAlu            0      0.00%     77.26% # Class of committed instruction (Count)
system.cpu.commit.committedInstType_0::SimdFloatCmp            0      0.00%     77.26% # Class of committed instruction (Count)
system.cpu.commit.committedInstType_0::SimdFloatCvt            0      0.00%     77.26% # Class of committed instruction (Count)
system.cpu.commit.committedInstType_0::SimdFloatDiv            0      0.00%     77.26% # Class of committed instruction (Count)
system.cpu.commit.committedInstType_0::SimdFloatMisc            0      0.00%     77.26% # Class of committed instruction (Count)
system.cpu.commit.committedInstType_0::SimdFloatMult            0      0.00%     77.26% # Class of committed instruction (Count)
system.cpu.commit.committedInstType_0::SimdFloatMultAcc            0      0.00%     77.26% # Class of committed instruction (Count)
system.cpu.commit.committedInstType_0::SimdFloatSqrt            0      0.00%     77.26% # Class of committed instruction (Count)
system.cpu.commit.committedInstType_0::SimdReduceAdd            0      0.00%     77.26% # Class of committed instruction (Count)
system.cpu.commit.committedInstType_0::SimdReduceAlu            0      0.00%     77.26% # Class of committed instruction (Count)
system.cpu.commit.committedInstType_0::SimdReduceCmp            0      0.00%     77.26% # Class of committed instruction (Count)
system.cpu.commit.committedInstType_0::SimdFloatReduceAdd            0      0.00%     77.26% # Class of committed instruction (Count)
system.cpu.commit.committedInstType_0::SimdFloatReduceCmp            0      0.00%     77.26% # Class of committed instruction (Count)
system.cpu.commit.committedInstType_0::SimdAes            0      0.00%     77.26% # Class of committed instruction (Count)
system.cpu.commit.committedInstType_0::SimdAesMix            0      0.00%     77.26% # Class of committed instruction (Count)
system.cpu.commit.committedInstType_0::SimdSha1Hash            0      0.00%     77.26% # Class of committed instruction (Count)
system.cpu.commit.committedInstType_0::SimdSha1Hash2            0      0.00%     77.26% # Class of committed instruction (Count)
system.cpu.commit.committedInstType_0::SimdSha256Hash            0      0.00%     77.26% # Class of committed instruction (Count)
system.cpu.commit.committedInstType_0::SimdSha256Hash2            0      0.00%     77.26% # Class of committed instruction (Count)
system.cpu.commit.committedInstType_0::SimdShaSigma2            0      0.00%     77.26% # Class of committed instruction (Count)
system.cpu.commit.committedInstType_0::SimdShaSigma3            0      0.00%     77.26% # Class of committed instruction (Count)
system.cpu.commit.committedInstType_0::SimdPredAlu            0      0.00%     77.26% # Class of committed instruction (Count)
system.cpu.commit.committedInstType_0::MemRead        33724     15.01%     92.27% # Class of committed instruction (Count)
system.cpu.commit.committedInstType_0::MemWrite        16934      7.54%     99.81% # Class of committed instruction (Count)
system.cpu.commit.committedInstType_0::FloatMemRead          242      0.11%     99.91% # Class of committed instruction (Count)
system.cpu.commit.committedInstType_0::FloatMemWrite          192      0.09%    100.00% # Class of committed instruction (Count)
system.cpu.commit.committedInstType_0::IprAccess            0      0.00%    100.00% # Class of committed instruction (Count)
system.cpu.commit.committedInstType_0::InstPrefetch            0      0.00%    100.00% # Class of committed instruction (Count)
system.cpu.commit.committedInstType_0::total       224694                       # Class of committed instruction (Count)
system.cpu.commit.commitEligibleSamples          9586                       # number cycles where commit BW limit reached (Cycle)
system.cpu.dcache.demandHits::cpu.data          53176                       # number of demand (read+write) hits (Count)
system.cpu.dcache.demandHits::total             53176                       # number of demand (read+write) hits (Count)
system.cpu.dcache.overallHits::cpu.data         53176                       # number of overall hits (Count)
system.cpu.dcache.overallHits::total            53176                       # number of overall hits (Count)
system.cpu.dcache.demandMisses::cpu.data         5575                       # number of demand (read+write) misses (Count)
system.cpu.dcache.demandMisses::total            5575                       # number of demand (read+write) misses (Count)
system.cpu.dcache.overallMisses::cpu.data         5575                       # number of overall misses (Count)
system.cpu.dcache.overallMisses::total           5575                       # number of overall misses (Count)
system.cpu.dcache.demandMissLatency::cpu.data    328058987                       # number of demand (read+write) miss ticks (Tick)
system.cpu.dcache.demandMissLatency::total    328058987                       # number of demand (read+write) miss ticks (Tick)
system.cpu.dcache.overallMissLatency::cpu.data    328058987                       # number of overall miss ticks (Tick)
system.cpu.dcache.overallMissLatency::total    328058987                       # number of overall miss ticks (Tick)
system.cpu.dcache.demandAccesses::cpu.data        58751                       # number of demand (read+write) accesses (Count)
system.cpu.dcache.demandAccesses::total         58751                       # number of demand (read+write) accesses (Count)
system.cpu.dcache.overallAccesses::cpu.data        58751                       # number of overall (read+write) accesses (Count)
system.cpu.dcache.overallAccesses::total        58751                       # number of overall (read+write) accesses (Count)
system.cpu.dcache.demandMissRate::cpu.data     0.094892                       # miss rate for demand accesses (Ratio)
system.cpu.dcache.demandMissRate::total      0.094892                       # miss rate for demand accesses (Ratio)
system.cpu.dcache.overallMissRate::cpu.data     0.094892                       # miss rate for overall accesses (Ratio)
system.cpu.dcache.overallMissRate::total     0.094892                       # miss rate for overall accesses (Ratio)
system.cpu.dcache.demandAvgMissLatency::cpu.data 58844.661345                       # average overall miss latency in ticks ((Tick/Count))
system.cpu.dcache.demandAvgMissLatency::total 58844.661345                       # average overall miss latency in ticks ((Tick/Count))
system.cpu.dcache.overallAvgMissLatency::cpu.data 58844.661345                       # average overall miss latency ((Tick/Count))
system.cpu.dcache.overallAvgMissLatency::total 58844.661345                       # average overall miss latency ((Tick/Count))
system.cpu.dcache.blockedCycles::no_mshrs        14394                       # number of cycles access was blocked (Cycle)
system.cpu.dcache.blockedCycles::no_targets            0                       # number of cycles access was blocked (Cycle)
system.cpu.dcache.blockedCauses::no_mshrs          297                       # number of times access was blocked (Count)
system.cpu.dcache.blockedCauses::no_targets            0                       # number of times access was blocked (Count)
system.cpu.dcache.avgBlocked::no_mshrs      48.464646                       # average number of cycles each access was blocked ((Cycle/Count))
system.cpu.dcache.avgBlocked::no_targets          nan                       # average number of cycles each access was blocked ((Cycle/Count))
system.cpu.dcache.writebacks::writebacks          503                       # number of writebacks (Count)
system.cpu.dcache.writebacks::total               503                       # number of writebacks (Count)
system.cpu.dcache.demandMshrHits::cpu.data         3515                       # number of demand (read+write) MSHR hits (Count)
system.cpu.dcache.demandMshrHits::total          3515                       # number of demand (read+write) MSHR hits (Count)
system.cpu.dcache.overallMshrHits::cpu.data         3515                       # number of overall MSHR hits (Count)
system.cpu.dcache.overallMshrHits::total         3515                       # number of overall MSHR hits (Count)
system.cpu.dcache.demandMshrMisses::cpu.data         2060                       # number of demand (read+write) MSHR misses (Count)
system.cpu.dcache.demandMshrMisses::total         2060                       # number of demand (read+write) MSHR misses (Count)
system.cpu.dcache.overallMshrMisses::cpu.data         2060                       # number of overall MSHR misses (Count)
system.cpu.dcache.overallMshrMisses::total         2060                       # number of overall MSHR misses (Count)
system.cpu.dcache.demandMshrMissLatency::cpu.data    133488987                       # number of demand (read+write) MSHR miss ticks (Tick)
system.cpu.dcache.demandMshrMissLatency::total    133488987                       # number of demand (read+write) MSHR miss ticks (Tick)
system.cpu.dcache.overallMshrMissLatency::cpu.data    133488987                       # number of overall MSHR miss ticks (Tick)
system.cpu.dcache.overallMshrMissLatency::total    133488987                       # number of overall MSHR miss ticks (Tick)
system.cpu.dcache.demandMshrMissRate::cpu.data     0.035063                       # mshr miss ratio for demand accesses (Ratio)
system.cpu.dcache.demandMshrMissRate::total     0.035063                       # mshr miss ratio for demand accesses (Ratio)
system.cpu.dcache.overallMshrMissRate::cpu.data     0.035063                       # mshr miss ratio for overall accesses (Ratio)
system.cpu.dcache.overallMshrMissRate::total     0.035063                       # mshr miss ratio for overall accesses (Ratio)
system.cpu.dcache.demandAvgMshrMissLatency::cpu.data 64800.479126                       # average overall mshr miss latency ((Tick/Count))
system.cpu.dcache.demandAvgMshrMissLatency::total 64800.479126                       # average overall mshr miss latency ((Tick/Count))
system.cpu.dcache.overallAvgMshrMissLatency::cpu.data 64800.479126                       # average overall mshr miss latency ((Tick/Count))
system.cpu.dcache.overallAvgMshrMissLatency::total 64800.479126                       # average overall mshr miss latency ((Tick/Count))
system.cpu.dcache.replacements                   1548                       # number of replacements (Count)
system.cpu.dcache.ReadReq.hits::cpu.data        36542                       # number of ReadReq hits (Count)
system.cpu.dcache.ReadReq.hits::total           36542                       # number of ReadReq hits (Count)
system.cpu.dcache.ReadReq.misses::cpu.data         5073                       # number of ReadReq misses (Count)
system.cpu.dcache.ReadReq.misses::total          5073                       # number of ReadReq misses (Count)
system.cpu.dcache.ReadReq.missLatency::cpu.data    296298000                       # number of ReadReq miss ticks (Tick)
system.cpu.dcache.ReadReq.missLatency::total    296298000                       # number of ReadReq miss ticks (Tick)
system.cpu.dcache.ReadReq.accesses::cpu.data        41615                       # number of ReadReq accesses(hits+misses) (Count)
system.cpu.dcache.ReadReq.accesses::total        41615                       # number of ReadReq accesses(hits+misses) (Count)
system.cpu.dcache.ReadReq.missRate::cpu.data     0.121903                       # miss rate for ReadReq accesses (Ratio)
system.cpu.dcache.ReadReq.missRate::total     0.121903                       # miss rate for ReadReq accesses (Ratio)
system.cpu.dcache.ReadReq.avgMissLatency::cpu.data 58406.859846                       # average ReadReq miss latency ((Tick/Count))
system.cpu.dcache.ReadReq.avgMissLatency::total 58406.859846                       # average ReadReq miss latency ((Tick/Count))
system.cpu.dcache.ReadReq.mshrHits::cpu.data         3505                       # number of ReadReq MSHR hits (Count)
system.cpu.dcache.ReadReq.mshrHits::total         3505                       # number of ReadReq MSHR hits (Count)
system.cpu.dcache.ReadReq.mshrMisses::cpu.data         1568                       # number of ReadReq MSHR misses (Count)
system.cpu.dcache.ReadReq.mshrMisses::total         1568                       # number of ReadReq MSHR misses (Count)
system.cpu.dcache.ReadReq.mshrMissLatency::cpu.data    102570000                       # number of ReadReq MSHR miss ticks (Tick)
system.cpu.dcache.ReadReq.mshrMissLatency::total    102570000                       # number of ReadReq MSHR miss ticks (Tick)
system.cpu.dcache.ReadReq.mshrMissRate::cpu.data     0.037679                       # mshr miss rate for ReadReq accesses (Ratio)
system.cpu.dcache.ReadReq.mshrMissRate::total     0.037679                       # mshr miss rate for ReadReq accesses (Ratio)
system.cpu.dcache.ReadReq.avgMshrMissLatency::cpu.data 65414.540816                       # average ReadReq mshr miss latency ((Tick/Count))
system.cpu.dcache.ReadReq.avgMshrMissLatency::total 65414.540816                       # average ReadReq mshr miss latency ((Tick/Count))
system.cpu.dcache.WriteReq.hits::cpu.data        16634                       # number of WriteReq hits (Count)
system.cpu.dcache.WriteReq.hits::total          16634                       # number of WriteReq hits (Count)
system.cpu.dcache.WriteReq.misses::cpu.data          502                       # number of WriteReq misses (Count)
system.cpu.dcache.WriteReq.misses::total          502                       # number of WriteReq misses (Count)
system.cpu.dcache.WriteReq.missLatency::cpu.data     31760987                       # number of WriteReq miss ticks (Tick)
system.cpu.dcache.WriteReq.missLatency::total     31760987                       # number of WriteReq miss ticks (Tick)
system.cpu.dcache.WriteReq.accesses::cpu.data        17136                       # number of WriteReq accesses(hits+misses) (Count)
system.cpu.dcache.WriteReq.accesses::total        17136                       # number of WriteReq accesses(hits+misses) (Count)
system.cpu.dcache.WriteReq.missRate::cpu.data     0.029295                       # miss rate for WriteReq accesses (Ratio)
system.cpu.dcache.WriteReq.missRate::total     0.029295                       # miss rate for WriteReq accesses (Ratio)
system.cpu.dcache.WriteReq.avgMissLatency::cpu.data 63268.898406                       # average WriteReq miss latency ((Tick/Count))
system.cpu.dcache.WriteReq.avgMissLatency::total 63268.898406                       # average WriteReq miss latency ((Tick/Count))
system.cpu.dcache.WriteReq.mshrHits::cpu.data           10                       # number of WriteReq MSHR hits (Count)
system.cpu.dcache.WriteReq.mshrHits::total           10                       # number of WriteReq MSHR hits (Count)
system.cpu.dcache.WriteReq.mshrMisses::cpu.data          492                       # number of WriteReq MSHR misses (Count)
system.cpu.dcache.WriteReq.mshrMisses::total          492                       # number of WriteReq MSHR misses (Count)
system.cpu.dcache.WriteReq.mshrMissLatency::cpu.data     30918987                       # number of WriteReq MSHR miss ticks (Tick)
system.cpu.dcache.WriteReq.mshrMissLatency::total     30918987                       # number of WriteReq MSHR miss ticks (Tick)
system.cpu.dcache.WriteReq.mshrMissRate::cpu.data     0.028711                       # mshr miss rate for WriteReq accesses (Ratio)
system.cpu.dcache.WriteReq.mshrMissRate::total     0.028711                       # mshr miss rate for WriteReq accesses (Ratio)
system.cpu.dcache.WriteReq.avgMshrMissLatency::cpu.data 62843.469512                       # average WriteReq mshr miss latency ((Tick/Count))
system.cpu.dcache.WriteReq.avgMshrMissLatency::total 62843.469512                       # average WriteReq mshr miss latency ((Tick/Count))
system.cpu.dcache.power_state.pwrStateResidencyTicks::UNDEFINED    160086000                       # Cumulative time (in ticks) in various power states (Tick)
system.cpu.dcache.tags.tagsInUse           426.043715                       # Average ticks per tags in use ((Tick/Count))
system.cpu.dcache.tags.totalRefs                55236                       # Total number of references to valid blocks. (Count)
system.cpu.dcache.tags.sampledRefs               2060                       # Sample count of references to valid blocks. (Count)
system.cpu.dcache.tags.avgRefs              26.813592                       # Average number of references to valid blocks. ((Count/Count))
system.cpu.dcache.tags.warmupTick              148000                       # The tick when the warmup percentage was hit. (Tick)
system.cpu.dcache.tags.occupancies::cpu.data   426.043715                       # Average occupied blocks per tick, per requestor ((Count/Tick))
system.cpu.dcache.tags.avgOccs::cpu.data     0.832117                       # Average percentage of cache occupancy ((Ratio/Tick))
system.cpu.dcache.tags.avgOccs::total        0.832117                       # Average percentage of cache occupancy ((Ratio/Tick))
system.cpu.dcache.tags.occupanciesTaskId::1024          512                       # Occupied blocks per task id (Count)
system.cpu.dcache.tags.ageTaskId_1024::0           44                       # Occupied blocks per task id, per block age (Count)
system.cpu.dcache.tags.ageTaskId_1024::1          468                       # Occupied blocks per task id, per block age (Count)
system.cpu.dcache.tags.ratioOccsTaskId::1024            1                       # Ratio of occupied blocks and all blocks, per task id (Ratio)
system.cpu.dcache.tags.tagAccesses             472068                       # Number of tag accesses (Count)
system.cpu.dcache.tags.dataAccesses            472068                       # Number of data accesses (Count)
system.cpu.dcache.tags.power_state.pwrStateResidencyTicks::UNDEFINED    160086000                       # Cumulative time (in ticks) in various power states (Tick)
system.cpu.decode.idleCycles                    52000                       # Number of cycles decode is idle (Cycle)
system.cpu.decode.blockedCycles                143606                       # Number of cycles decode is blocked (Cycle)
system.cpu.decode.runCycles                     47599                       # Number of cycles decode is running (Cycle)
system.cpu.decode.unblockCycles                 10861                       # Number of cycles decode is unblocking (Cycle)
system.cpu.decode.squashCycles                   3438                       # Number of cycles decode is squashing (Cycle)
system.cpu.decode.branchResolved                20851                       # Number of times decode resolved a branch (Count)
system.cpu.decode.branchMispred                   599                       # Number of times decode detected a branch misprediction (Count)
system.cpu.decode.decodedInsts                 399911                       # Number of instructions handled by decode (Count)
system.cpu.decode.squashedInsts                  2845                       # Number of squashed instructions handled by decode (Count)
system.cpu.dtb_walker_cache.blockedCycles::no_mshrs            0                       # number of cycles access was blocked (Cycle)
system.cpu.dtb_walker_cache.blockedCycles::no_targets            0                       # number of cycles access was blocked (Cycle)
system.cpu.dtb_walker_cache.blockedCauses::no_mshrs            0                       # number of times access was blocked (Count)
system.cpu.dtb_walker_cache.blockedCauses::no_targets            0                       # number of times access was blocked (Count)
system.cpu.dtb_walker_cache.avgBlocked::no_mshrs          nan                       # average number of cycles each access was blocked ((Cycle/Count))
system.cpu.dtb_walker_cache.avgBlocked::no_targets          nan                       # average number of cycles each access was blocked ((Cycle/Count))
system.cpu.dtb_walker_cache.replacements            0                       # number of replacements (Count)
system.cpu.dtb_walker_cache.power_state.pwrStateResidencyTicks::UNDEFINED    160086000                       # Cumulative time (in ticks) in various power states (Tick)
system.cpu.dtb_walker_cache.tags.tagsInUse            0                       # Average ticks per tags in use ((Tick/Count))
system.cpu.dtb_walker_cache.tags.totalRefs            0                       # Total number of references to valid blocks. (Count)
system.cpu.dtb_walker_cache.tags.sampledRefs            0                       # Sample count of references to valid blocks. (Count)
system.cpu.dtb_walker_cache.tags.avgRefs          nan                       # Average number of references to valid blocks. ((Count/Count))
system.cpu.dtb_walker_cache.tags.warmupTick            0                       # The tick when the warmup percentage was hit. (Tick)
system.cpu.dtb_walker_cache.tags.tagAccesses            0                       # Number of tag accesses (Count)
system.cpu.dtb_walker_cache.tags.dataAccesses            0                       # Number of data accesses (Count)
system.cpu.dtb_walker_cache.tags.power_state.pwrStateResidencyTicks::UNDEFINED    160086000                       # Cumulative time (in ticks) in various power states (Tick)
system.cpu.fetch.icacheStallCycles              56108                       # Number of cycles fetch is stalled on an Icache miss (Cycle)
system.cpu.fetch.insts                         242488                       # Number of instructions fetch has processed (Count)
system.cpu.fetch.branches                       52037                       # Number of branches that fetch encountered (Count)
system.cpu.fetch.predictedBranches              25154                       # Number of branches that fetch has predicted taken (Count)
system.cpu.fetch.cycles                        194832                       # Number of cycles fetch has run and was not squashing or blocked (Cycle)
system.cpu.fetch.squashCycles                    8042                       # Number of cycles fetch has spent squashing (Cycle)
system.cpu.fetch.miscStallCycles                  313                       # Number of cycles fetch has spent waiting on interrupts, or bad addresses, or out of MSHRs (Cycle)
system.cpu.fetch.pendingTrapStallCycles          2230                       # Number of stall cycles due to pending traps (Cycle)
system.cpu.fetch.cacheLines                     24713                       # Number of cache lines fetched (Count)
system.cpu.fetch.icacheSquashes                  1304                       # Number of outstanding Icache misses that were squashed (Count)
system.cpu.fetch.nisnDist::samples             257504                       # Number of instructions fetched each cycle (Total) (Count)
system.cpu.fetch.nisnDist::mean              1.702362                       # Number of instructions fetched each cycle (Total) (Count)
system.cpu.fetch.nisnDist::stdev             3.007057                       # Number of instructions fetched each cycle (Total) (Count)
system.cpu.fetch.nisnDist::underflows               0      0.00%      0.00% # Number of instructions fetched each cycle (Total) (Count)
system.cpu.fetch.nisnDist::0                   186060     72.26%     72.26% # Number of instructions fetched each cycle (Total) (Count)
system.cpu.fetch.nisnDist::1                     3006      1.17%     73.42% # Number of instructions fetched each cycle (Total) (Count)
system.cpu.fetch.nisnDist::2                     3944      1.53%     74.95% # Number of instructions fetched each cycle (Total) (Count)
system.cpu.fetch.nisnDist::3                     5323      2.07%     77.02% # Number of instructions fetched each cycle (Total) (Count)
system.cpu.fetch.nisnDist::4                     9998      3.88%     80.90% # Number of instructions fetched each cycle (Total) (Count)
system.cpu.fetch.nisnDist::5                     3390      1.32%     82.22% # Number of instructions fetched each cycle (Total) (Count)
system.cpu.fetch.nisnDist::6                     4370      1.70%     83.92% # Number of instructions fetched each cycle (Total) (Count)
system.cpu.fetch.nisnDist::7                     2964      1.15%     85.07% # Number of instructions fetched each cycle (Total) (Count)
system.cpu.fetch.nisnDist::8                    38449     14.93%    100.00% # Number of instructions fetched each cycle (Total) (Count)
system.cpu.fetch.nisnDist::overflows                0      0.00%    100.00% # Number of instructions fetched each cycle (Total) (Count)
system.cpu.fetch.nisnDist::min_value                0                       # Number of instructions fetched each cycle (Total) (Count)
system.cpu.fetch.nisnDist::max_value                8                       # Number of instructions fetched each cycle (Total) (Count)
system.cpu.fetch.nisnDist::total               257504                       # Number of instructions fetched each cycle (Total) (Count)
system.cpu.fetch.branchRate                  0.162528                       # Number of branch fetches per cycle (Ratio)
system.cpu.fetch.rate                        0.757366                       # Number of inst fetches per cycle ((Count/Cycle))
system.cpu.icache.demandHits::cpu.inst          23246                       # number of demand (read+write) hits (Count)
system.cpu.icache.demandHits::total             23246                       # number of demand (read+write) hits (Count)
system.cpu.icache.overallHits::cpu.inst         23246                       # number of overall hits (Count)
system.cpu.icache.overallHits::total            23246                       # number of overall hits (Count)
system.cpu.icache.demandMisses::cpu.inst         1467                       # number of demand (read+write) misses (Count)
system.cpu.icache.demandMisses::total            1467                       # number of demand (read+write) misses (Count)
system.cpu.icache.overallMisses::cpu.inst         1467                       # number of overall misses (Count)
system.cpu.icache.overallMisses::total           1467                       # number of overall misses (Count)
system.cpu.icache.demandMissLatency::cpu.inst     87400500                       # number of demand (read+write) miss ticks (Tick)
system.cpu.icache.demandMissLatency::total     87400500                       # number of demand (read+write) miss ticks (Tick)
system.cpu.icache.overallMissLatency::cpu.inst     87400500                       # number of overall miss ticks (Tick)
system.cpu.icache.overallMissLatency::total     87400500                       # number of overall miss ticks (Tick)
system.cpu.icache.demandAccesses::cpu.inst        24713                       # number of demand (read+write) accesses (Count)
system.cpu.icache.demandAccesses::total         24713                       # number of demand (read+write) accesses (Count)
system.cpu.icache.overallAccesses::cpu.inst        24713                       # number of overall (read+write) accesses (Count)
system.cpu.icache.overallAccesses::total        24713                       # number of overall (read+write) accesses (Count)
system.cpu.icache.demandMissRate::cpu.inst     0.059361                       # miss rate for demand accesses (Ratio)
system.cpu.icache.demandMissRate::total      0.059361                       # miss rate for demand accesses (Ratio)
system.cpu.icache.overallMissRate::cpu.inst     0.059361                       # miss rate for overall accesses (Ratio)
system.cpu.icache.overallMissRate::total     0.059361                       # miss rate for overall accesses (Ratio)
system.cpu.icache.demandAvgMissLatency::cpu.inst 59577.709611                       # average overall miss latency in ticks ((Tick/Count))
system.cpu.icache.demandAvgMissLatency::total 59577.709611                       # average overall miss latency in ticks ((Tick/Count))
system.cpu.icache.overallAvgMissLatency::cpu.inst 59577.709611                       # average overall miss latency ((Tick/Count))
system.cpu.icache.overallAvgMissLatency::total 59577.709611                       # average overall miss latency ((Tick/Count))
system.cpu.icache.blockedCycles::no_mshrs            0                       # number of cycles access was blocked (Cycle)
system.cpu.icache.blockedCycles::no_targets            0                       # number of cycles access was blocked (Cycle)
system.cpu.icache.blockedCauses::no_mshrs            0                       # number of times access was blocked (Count)
system.cpu.icache.blockedCauses::no_targets            0                       # number of times access was blocked (Count)
system.cpu.icache.avgBlocked::no_mshrs            nan                       # average number of cycles each access was blocked ((Cycle/Count))
system.cpu.icache.avgBlocked::no_targets          nan                       # average number of cycles each access was blocked ((Cycle/Count))
system.cpu.icache.writebacks::writebacks          550                       # number of writebacks (Count)
system.cpu.icache.writebacks::total               550                       # number of writebacks (Count)
system.cpu.icache.demandMshrHits::cpu.inst          404                       # number of demand (read+write) MSHR hits (Count)
system.cpu.icache.demandMshrHits::total           404                       # number of demand (read+write) MSHR hits (Count)
system.cpu.icache.overallMshrHits::cpu.inst          404                       # number of overall MSHR hits (Count)
system.cpu.icache.overallMshrHits::total          404                       # number of overall MSHR hits (Count)
system.cpu.icache.demandMshrMisses::cpu.inst         1063                       # number of demand (read+write) MSHR misses (Count)
system.cpu.icache.demandMshrMisses::total         1063                       # number of demand (read+write) MSHR misses (Count)
system.cpu.icache.overallMshrMisses::cpu.inst         1063                       # number of overall MSHR misses (Count)
system.cpu.icache.overallMshrMisses::total         1063                       # number of overall MSHR misses (Count)
system.cpu.icache.demandMshrMissLatency::cpu.inst     66771000                       # number of demand (read+write) MSHR miss ticks (Tick)
system.cpu.icache.demandMshrMissLatency::total     66771000                       # number of demand (read+write) MSHR miss ticks (Tick)
system.cpu.icache.overallMshrMissLatency::cpu.inst     66771000                       # number of overall MSHR miss ticks (Tick)
system.cpu.icache.overallMshrMissLatency::total     66771000                       # number of overall MSHR miss ticks (Tick)
system.cpu.icache.demandMshrMissRate::cpu.inst     0.043014                       # mshr miss ratio for demand accesses (Ratio)
system.cpu.icache.demandMshrMissRate::total     0.043014                       # mshr miss ratio for demand accesses (Ratio)
system.cpu.icache.overallMshrMissRate::cpu.inst     0.043014                       # mshr miss ratio for overall accesses (Ratio)
system.cpu.icache.overallMshrMissRate::total     0.043014                       # mshr miss ratio for overall accesses (Ratio)
system.cpu.icache.demandAvgMshrMissLatency::cpu.inst 62813.734713                       # average overall mshr miss latency ((Tick/Count))
system.cpu.icache.demandAvgMshrMissLatency::total 62813.734713                       # average overall mshr miss latency ((Tick/Count))
system.cpu.icache.overallAvgMshrMissLatency::cpu.inst 62813.734713                       # average overall mshr miss latency ((Tick/Count))
system.cpu.icache.overallAvgMshrMissLatency::total 62813.734713                       # average overall mshr miss latency ((Tick/Count))
system.cpu.icache.replacements                    550                       # number of replacements (Count)
system.cpu.icache.ReadReq.hits::cpu.inst        23246                       # number of ReadReq hits (Count)
system.cpu.icache.ReadReq.hits::total           23246                       # number of ReadReq hits (Count)
system.cpu.icache.ReadReq.misses::cpu.inst         1467                       # number of ReadReq misses (Count)
system.cpu.icache.ReadReq.misses::total          1467                       # number of ReadReq misses (Count)
system.cpu.icache.ReadReq.missLatency::cpu.inst     87400500                       # number of ReadReq miss ticks (Tick)
system.cpu.icache.ReadReq.missLatency::total     87400500                       # number of ReadReq miss ticks (Tick)
system.cpu.icache.ReadReq.accesses::cpu.inst        24713                       # number of ReadReq accesses(hits+misses) (Count)
system.cpu.icache.ReadReq.accesses::total        24713                       # number of ReadReq accesses(hits+misses) (Count)
system.cpu.icache.ReadReq.missRate::cpu.inst     0.059361                       # miss rate for ReadReq accesses (Ratio)
system.cpu.icache.ReadReq.missRate::total     0.059361                       # miss rate for ReadReq accesses (Ratio)
system.cpu.icache.ReadReq.avgMissLatency::cpu.inst 59577.709611                       # average ReadReq miss latency ((Tick/Count))
system.cpu.icache.ReadReq.avgMissLatency::total 59577.709611                       # average ReadReq miss latency ((Tick/Count))
system.cpu.icache.ReadReq.mshrHits::cpu.inst          404                       # number of ReadReq MSHR hits (Count)
system.cpu.icache.ReadReq.mshrHits::total          404                       # number of ReadReq MSHR hits (Count)
system.cpu.icache.ReadReq.mshrMisses::cpu.inst         1063                       # number of ReadReq MSHR misses (Count)
system.cpu.icache.ReadReq.mshrMisses::total         1063                       # number of ReadReq MSHR misses (Count)
system.cpu.icache.ReadReq.mshrMissLatency::cpu.inst     66771000                       # number of ReadReq MSHR miss ticks (Tick)
system.cpu.icache.ReadReq.mshrMissLatency::total     66771000                       # number of ReadReq MSHR miss ticks (Tick)
system.cpu.icache.ReadReq.mshrMissRate::cpu.inst     0.043014                       # mshr miss rate for ReadReq accesses (Ratio)
system.cpu.icache.ReadReq.mshrMissRate::total     0.043014                       # mshr miss rate for ReadReq accesses (Ratio)
system.cpu.icache.ReadReq.avgMshrMissLatency::cpu.inst 62813.734713                       # average ReadReq mshr miss latency ((Tick/Count))
system.cpu.icache.ReadReq.avgMshrMissLatency::total 62813.734713                       # average ReadReq mshr miss latency ((Tick/Count))
system.cpu.icache.power_state.pwrStateResidencyTicks::UNDEFINED    160086000                       # Cumulative time (in ticks) in various power states (Tick)
system.cpu.icache.tags.tagsInUse           446.826887                       # Average ticks per tags in use ((Tick/Count))
system.cpu.icache.tags.totalRefs                24308                       # Total number of references to valid blocks. (Count)
system.cpu.icache.tags.sampledRefs               1062                       # Sample count of references to valid blocks. (Count)
system.cpu.icache.tags.avgRefs              22.888889                       # Average number of references to valid blocks. ((Count/Count))
system.cpu.icache.tags.warmupTick               77000                       # The tick when the warmup percentage was hit. (Tick)
system.cpu.icache.tags.occupancies::cpu.inst   446.826887                       # Average occupied blocks per tick, per requestor ((Count/Tick))
system.cpu.icache.tags.avgOccs::cpu.inst     0.872709                       # Average percentage of cache occupancy ((Ratio/Tick))
system.cpu.icache.tags.avgOccs::total        0.872709                       # Average percentage of cache occupancy ((Ratio/Tick))
system.cpu.icache.tags.occupanciesTaskId::1024          512                       # Occupied blocks per task id (Count)
system.cpu.icache.tags.ageTaskId_1024::0          139                       # Occupied blocks per task id, per block age (Count)
system.cpu.icache.tags.ageTaskId_1024::1          305                       # Occupied blocks per task id, per block age (Count)
system.cpu.icache.tags.ageTaskId_1024::2           68                       # Occupied blocks per task id, per block age (Count)
system.cpu.icache.tags.ratioOccsTaskId::1024            1                       # Ratio of occupied blocks and all blocks, per task id (Ratio)
system.cpu.icache.tags.tagAccesses             198766                       # Number of tag accesses (Count)
system.cpu.icache.tags.dataAccesses            198766                       # Number of data accesses (Count)
system.cpu.icache.tags.power_state.pwrStateResidencyTicks::UNDEFINED    160086000                       # Cumulative time (in ticks) in various power states (Tick)
system.cpu.iew.reusedInsts                      24524                       # Number of instructions reused (Cycle)
system.cpu.iew.reusedFloatInsts                    45                       # Number of float instructions reused (Cycle)
system.cpu.iew.reusedIntInsts                   24479                       # Number of int instructions reused (Cycle)
system.cpu.iew.reusedVecInsts                       0                       # Number of vector instructions reused (Cycle)
system.cpu.iew.idleCycles                           0                       # Number of cycles IEW is idle (Cycle)
system.cpu.iew.squashCycles                      3438                       # Number of cycles IEW is squashing (Cycle)
system.cpu.iew.blockCycles                      67780                       # Number of cycles IEW is blocking (Cycle)
system.cpu.iew.unblockCycles                     2848                       # Number of cycles IEW is unblocking (Cycle)
system.cpu.iew.dispatchedInsts                 366014                       # Number of instructions dispatched to IQ (Count)
system.cpu.iew.dispSquashedInsts                  438                       # Number of squashed instructions skipped by dispatch (Count)
system.cpu.iew.dispLoadInsts                    55214                       # Number of dispatched load instructions (Count)
system.cpu.iew.dispStoreInsts                   25546                       # Number of dispatched store instructions (Count)
system.cpu.iew.dispNonSpecInsts                    84                       # Number of dispatched non-speculative instructions (Count)
system.cpu.iew.iqFullEvents                       324                       # Number of times the IQ has become full, causing a stall (Count)
system.cpu.iew.lsqFullEvents                     2213                       # Number of times the LSQ has become full, causing a stall (Count)
system.cpu.iew.memOrderViolationEvents            101                       # Number of memory order violations (Count)
system.cpu.iew.predictedTakenIncorrect            902                       # Number of branches that were predicted taken incorrectly (Count)
system.cpu.iew.predictedNotTakenIncorrect         2674                       # Number of branches that were predicted not taken incorrectly (Count)
system.cpu.iew.branchMispredicts                 3576                       # Number of branch mispredicts detected at execute (Count)
system.cpu.iew.instsToCommit                   305430                       # Cumulative count of insts sent to commit (Count)
system.cpu.iew.writebackCount                  303333                       # Cumulative count of insts written-back (Count)
system.cpu.iew.producerInst                    223183                       # Number of instructions producing a value (Count)
system.cpu.iew.consumerInst                    381491                       # Number of instructions consuming a value (Count)
system.cpu.iew.wbRate                        0.947403                       # Insts written-back per cycle ((Count/Cycle))
system.cpu.iew.wbFanout                      0.585028                       # Average fanout of values written-back ((Count/Count))
system.cpu.interrupts.clk_domain.clock           8000                       # Clock period in ticks (Tick)
system.cpu.itb_walker_cache.blockedCycles::no_mshrs            0                       # number of cycles access was blocked (Cycle)
system.cpu.itb_walker_cache.blockedCycles::no_targets            0                       # number of cycles access was blocked (Cycle)
system.cpu.itb_walker_cache.blockedCauses::no_mshrs            0                       # number of times access was blocked (Count)
system.cpu.itb_walker_cache.blockedCauses::no_targets            0                       # number of times access was blocked (Count)
system.cpu.itb_walker_cache.avgBlocked::no_mshrs          nan                       # average number of cycles each access was blocked ((Cycle/Count))
system.cpu.itb_walker_cache.avgBlocked::no_targets          nan                       # average number of cycles each access was blocked ((Cycle/Count))
system.cpu.itb_walker_cache.replacements            0                       # number of replacements (Count)
system.cpu.itb_walker_cache.power_state.pwrStateResidencyTicks::UNDEFINED    160086000                       # Cumulative time (in ticks) in various power states (Tick)
system.cpu.itb_walker_cache.tags.tagsInUse            0                       # Average ticks per tags in use ((Tick/Count))
system.cpu.itb_walker_cache.tags.totalRefs            0                       # Total number of references to valid blocks. (Count)
system.cpu.itb_walker_cache.tags.sampledRefs            0                       # Sample count of references to valid blocks. (Count)
system.cpu.itb_walker_cache.tags.avgRefs          nan                       # Average number of references to valid blocks. ((Count/Count))
system.cpu.itb_walker_cache.tags.warmupTick            0                       # The tick when the warmup percentage was hit. (Tick)
system.cpu.itb_walker_cache.tags.tagAccesses            0                       # Number of tag accesses (Count)
system.cpu.itb_walker_cache.tags.dataAccesses            0                       # Number of data accesses (Count)
system.cpu.itb_walker_cache.tags.power_state.pwrStateResidencyTicks::UNDEFINED    160086000                       # Cumulative time (in ticks) in various power states (Tick)
system.cpu.lsq0.forwLoads                        4390                       # Number of loads that had data forwarded from stores (Count)
system.cpu.lsq0.squashedLoads                   21248                       # Number of loads squashed (Count)
system.cpu.lsq0.ignoredResponses                   50                       # Number of memory responses ignored because the instruction is squashed (Count)
system.cpu.lsq0.memOrderViolation                 101                       # Number of memory ordering violations (Count)
system.cpu.lsq0.squashedStores                   8420                       # Number of stores squashed (Count)
system.cpu.lsq0.rescheduledLoads                    4                       # Number of loads that were rescheduled (Count)
system.cpu.lsq0.blockedByCache                    284                       # Number of times an access to memory failed due to the cache being blocked (Count)
system.cpu.lsq0.loadToUse::samples              33966                       # Distribution of cycle latency between the first time a load is issued and its completion (Unspecified)
system.cpu.lsq0.loadToUse::mean             19.124183                       # Distribution of cycle latency between the first time a load is issued and its completion (Unspecified)
system.cpu.lsq0.loadToUse::stdev            49.812862                       # Distribution of cycle latency between the first time a load is issued and its completion (Unspecified)
system.cpu.lsq0.loadToUse::0-9                  29718     87.49%     87.49% # Distribution of cycle latency between the first time a load is issued and its completion (Unspecified)
system.cpu.lsq0.loadToUse::10-19                  192      0.57%     88.06% # Distribution of cycle latency between the first time a load is issued and its completion (Unspecified)
system.cpu.lsq0.loadToUse::20-29                   90      0.26%     88.32% # Distribution of cycle latency between the first time a load is issued and its completion (Unspecified)
system.cpu.lsq0.loadToUse::30-39                   13      0.04%     88.36% # Distribution of cycle latency between the first time a load is issued and its completion (Unspecified)
system.cpu.lsq0.loadToUse::40-49                   26      0.08%     88.44% # Distribution of cycle latency between the first time a load is issued and its completion (Unspecified)
system.cpu.lsq0.loadToUse::50-59                   17      0.05%     88.49% # Distribution of cycle latency between the first time a load is issued and its completion (Unspecified)
system.cpu.lsq0.loadToUse::60-69                   37      0.11%     88.60% # Distribution of cycle latency between the first time a load is issued and its completion (Unspecified)
[...]
system.mem_ctrls.dram.bwWrite::total        201091913                       # Write bandwidth from this memory ((Byte/Second))
system.mem_ctrls.dram.bwTotal::writebacks    201091913                       # Total bandwidth to/from this memory ((Byte/Second))
system.mem_ctrls.dram.bwTotal::cpu.inst     424571793                       # Total bandwidth to/from this memory ((Byte/Second))
system.mem_ctrls.dram.bwTotal::cpu.data     823557338                       # Total bandwidth to/from this memory ((Byte/Second))
system.mem_ctrls.dram.bwTotal::total       1449221044                       # Total bandwidth to/from this memory ((Byte/Second))
system.mem_ctrls.dram.readBursts                 3112                       # Number of DRAM read bursts (Count)
system.mem_ctrls.dram.writeBursts                1020                       # Number of DRAM write bursts (Count)
system.mem_ctrls.dram.perBankRdBursts::0          215                       # Per bank write bursts (Count)
system.mem_ctrls.dram.perBankRdBursts::1           74                       # Per bank write bursts (Count)
system.mem_ctrls.dram.perBankRdBursts::2          130                       # Per bank write bursts (Count)
system.mem_ctrls.dram.perBankRdBursts::3          167                       # Per bank write bursts (Count)
system.mem_ctrls.dram.perBankRdBursts::4          198                       # Per bank write bursts (Count)
system.mem_ctrls.dram.perBankRdBursts::5          305                       # Per bank write bursts (Count)
system.mem_ctrls.dram.perBankRdBursts::6          267                       # Per bank write bursts (Count)
system.mem_ctrls.dram.perBankRdBursts::7          282                       # Per bank write bursts (Count)
system.mem_ctrls.dram.perBankRdBursts::8          309                       # Per bank write bursts (Count)
system.mem_ctrls.dram.perBankRdBursts::9          204                       # Per bank write bursts (Count)
system.mem_ctrls.dram.perBankRdBursts::10          205                       # Per bank write bursts (Count)
system.mem_ctrls.dram.perBankRdBursts::11          207                       # Per bank write bursts (Count)
system.mem_ctrls.dram.perBankRdBursts::12          127                       # Per bank write bursts (Count)
system.mem_ctrls.dram.perBankRdBursts::13          106                       # Per bank write bursts (Count)
system.mem_ctrls.dram.perBankRdBursts::14          113                       # Per bank write bursts (Count)
system.mem_ctrls.dram.perBankRdBursts::15          203                       # Per bank write bursts (Count)
system.mem_ctrls.dram.perBankWrBursts::0           47                       # Per bank write bursts (Count)
system.mem_ctrls.dram.perBankWrBursts::1           25                       # Per bank write bursts (Count)
system.mem_ctrls.dram.perBankWrBursts::2           51                       # Per bank write bursts (Count)
system.mem_ctrls.dram.perBankWrBursts::3           61                       # Per bank write bursts (Count)
system.mem_ctrls.dram.perBankWrBursts::4           47                       # Per bank write bursts (Count)
system.mem_ctrls.dram.perBankWrBursts::5          147                       # Per bank write bursts (Count)
system.mem_ctrls.dram.perBankWrBursts::6          131                       # Per bank write bursts (Count)
system.mem_ctrls.dram.perBankWrBursts::7           89                       # Per bank write bursts (Count)
system.mem_ctrls.dram.perBankWrBursts::8          143                       # Per bank write bursts (Count)
system.mem_ctrls.dram.perBankWrBursts::9           95                       # Per bank write bursts (Count)
system.mem_ctrls.dram.perBankWrBursts::10           45                       # Per bank write bursts (Count)
system.mem_ctrls.dram.perBankWrBursts::11           48                       # Per bank write bursts (Count)
system.mem_ctrls.dram.perBankWrBursts::12           27                       # Per bank write bursts (Count)
system.mem_ctrls.dram.perBankWrBursts::13           12                       # Per bank write bursts (Count)
system.mem_ctrls.dram.perBankWrBursts::14           13                       # Per bank write bursts (Count)
system.mem_ctrls.dram.perBankWrBursts::15           39                       # Per bank write bursts (Count)
system.mem_ctrls.dram.totQLat                41842750                       # Total ticks spent queuing (Tick)
system.mem_ctrls.dram.totBusLat              15560000                       # Total ticks spent in databus transfers (Tick)
system.mem_ctrls.dram.totMemAccLat          100192750                       # Total ticks spent from burst creation until serviced by the DRAM (Tick)
system.mem_ctrls.dram.avgQLat                13445.61                       # Average queueing delay per DRAM burst ((Tick/Count))
system.mem_ctrls.dram.avgBusLat               5000.00                       # Average bus latency per DRAM burst ((Tick/Count))
system.mem_ctrls.dram.avgMemAccLat           32195.61                       # Average memory access latency per DRAM burst ((Tick/Count))
system.mem_ctrls.dram.readRowHits                2447                       # Number of row buffer hits during reads (Count)
system.mem_ctrls.dram.writeRowHits                820                       # Number of row buffer hits during writes (Count)
system.mem_ctrls.dram.readRowHitRate            78.63                       # Row buffer hit rate for reads (Ratio)
system.mem_ctrls.dram.writeRowHitRate           80.39                       # Row buffer hit rate for writes (Ratio)
system.mem_ctrls.dram.bytesPerActivate::samples          851                       # Bytes accessed per row activation (Byte)
system.mem_ctrls.dram.bytesPerActivate::mean   307.139835                       # Bytes accessed per row activation (Byte)
system.mem_ctrls.dram.bytesPerActivate::gmean   189.961105                       # Bytes accessed per row activation (Byte)
system.mem_ctrls.dram.bytesPerActivate::stdev   313.262833                       # Bytes accessed per row activation (Byte)
system.mem_ctrls.dram.bytesPerActivate::0-127          276     32.43%     32.43% # Bytes accessed per row activation (Byte)
system.mem_ctrls.dram.bytesPerActivate::128-255          225     26.44%     58.87% # Bytes accessed per row activation (Byte)
system.mem_ctrls.dram.bytesPerActivate::256-383          101     11.87%     70.74% # Bytes accessed per row activation (Byte)
system.mem_ctrls.dram.bytesPerActivate::384-511           66      7.76%     78.50% # Bytes accessed per row activation (Byte)
system.mem_ctrls.dram.bytesPerActivate::512-639           44      5.17%     83.67% # Bytes accessed per row activation (Byte)
system.mem_ctrls.dram.bytesPerActivate::640-767           19      2.23%     85.90% # Bytes accessed per row activation (Byte)
system.mem_ctrls.dram.bytesPerActivate::768-895           13      1.53%     87.43% # Bytes accessed per row activation (Byte)
system.mem_ctrls.dram.bytesPerActivate::896-1023           20      2.35%     89.78% # Bytes accessed per row activation (Byte)
system.mem_ctrls.dram.bytesPerActivate::1024-1151           87     10.22%    100.00% # Bytes accessed per row activation (Byte)
system.mem_ctrls.dram.bytesPerActivate::total          851                       # Bytes accessed per row activation (Byte)
system.mem_ctrls.dram.bytesRead                199168                       # Total bytes read (Byte)
system.mem_ctrls.dram.bytesWritten              65280                       # Total bytes written (Byte)
system.mem_ctrls.dram.avgRdBW             1244.131279                       # Average DRAM read bandwidth in MiBytes/s ((Byte/Second))
system.mem_ctrls.dram.avgWrBW              407.780818                       # Average DRAM write bandwidth in MiBytes/s ((Byte/Second))
system.mem_ctrls.dram.peakBW                 12800.00                       # Theoretical peak bandwidth in MiByte/s ((Byte/Second))
system.mem_ctrls.dram.busUtil                   12.91                       # Data bus utilization in percentage (Ratio)
system.mem_ctrls.dram.busUtilRead                9.72                       # Data bus utilization in percentage for reads (Ratio)
system.mem_ctrls.dram.busUtilWrite               3.19                       # Data bus utilization in percentage for writes (Ratio)
system.mem_ctrls.dram.pageHitRate               79.07                       # Row buffer hit rate, read and write combined (Ratio)
system.mem_ctrls.dram.power_state.pwrStateResidencyTicks::UNDEFINED    160086000                       # Cumulative time (in ticks) in various power states (Tick)
system.mem_ctrls.dram.rank0.actEnergy         3555720                       # Energy for activate commands per rank (pJ) (Joule)
system.mem_ctrls.dram.rank0.preEnergy         1863345                       # Energy for precharge commands per rank (pJ) (Joule)
system.mem_ctrls.dram.rank0.readEnergy       11695320                       # Energy for read commands per rank (pJ) (Joule)
system.mem_ctrls.dram.rank0.writeEnergy       3121560                       # Energy for write commands per rank (pJ) (Joule)
system.mem_ctrls.dram.rank0.refreshEnergy 12292800.000000                       # Energy for refresh commands per rank (pJ) (Joule)
system.mem_ctrls.dram.rank0.actBackEnergy     71590860                       # Energy for active background per rank (pJ) (Joule)
system.mem_ctrls.dram.rank0.preBackEnergy      1186080                       # Energy for precharge background per rank (pJ) (Joule)
system.mem_ctrls.dram.rank0.actPowerDownEnergy            0                       # Energy for active power-down per rank (pJ) (Joule)
system.mem_ctrls.dram.rank0.prePowerDownEnergy            0                       # Energy for precharge power-down per rank (pJ) (Joule)
system.mem_ctrls.dram.rank0.selfRefreshEnergy            0                       # Energy for self refresh per rank (pJ) (Joule)
system.mem_ctrls.dram.rank0.totalEnergy     105305685                       # Total energy per rank (pJ) (Joule)
system.mem_ctrls.dram.rank0.averagePower   657.806960                       # Core power per rank (mW) (Watt)
system.mem_ctrls.dram.rank0.totalIdleTime            0                       # Total Idle time Per DRAM Rank (Tick)
system.mem_ctrls.dram.rank0.pwrStateTime::IDLE      2534000                       # Time in different power states (Tick)
system.mem_ctrls.dram.rank0.pwrStateTime::REF      5200000                       # Time in different power states (Tick)
system.mem_ctrls.dram.rank0.pwrStateTime::SREF            0                       # Time in different power states (Tick)
system.mem_ctrls.dram.rank0.pwrStateTime::PRE_PDN            0                       # Time in different power states (Tick)
system.mem_ctrls.dram.rank0.pwrStateTime::ACT    152352000                       # Time in different power states (Tick)
system.mem_ctrls.dram.rank0.pwrStateTime::ACT_PDN            0                       # Time in different power states (Tick)
system.mem_ctrls.dram.rank1.actEnergy         2620380                       # Energy for activate commands per rank (pJ) (Joule)
system.mem_ctrls.dram.rank1.preEnergy         1366200                       # Energy for precharge commands per rank (pJ) (Joule)
system.mem_ctrls.dram.rank1.readEnergy       10524360                       # Energy for read commands per rank (pJ) (Joule)
system.mem_ctrls.dram.rank1.writeEnergy       2202840                       # Energy for write commands per rank (pJ) (Joule)
system.mem_ctrls.dram.rank1.refreshEnergy 12292800.000000                       # Energy for refresh commands per rank (pJ) (Joule)
system.mem_ctrls.dram.rank1.actBackEnergy     70847580                       # Energy for active background per rank (pJ) (Joule)
system.mem_ctrls.dram.rank1.preBackEnergy      1812000                       # Energy for precharge background per rank (pJ) (Joule)
system.mem_ctrls.dram.rank1.actPowerDownEnergy            0                       # Energy for active power-down per rank (pJ) (Joule)
system.mem_ctrls.dram.rank1.prePowerDownEnergy            0                       # Energy for precharge power-down per rank (pJ) (Joule)
system.mem_ctrls.dram.rank1.selfRefreshEnergy            0                       # Energy for self refresh per rank (pJ) (Joule)
system.mem_ctrls.dram.rank1.totalEnergy     101666160                       # Total energy per rank (pJ) (Joule)
system.mem_ctrls.dram.rank1.averagePower   635.072149                       # Core power per rank (mW) (Watt)
system.mem_ctrls.dram.rank1.totalIdleTime            0                       # Total Idle time Per DRAM Rank (Tick)
system.mem_ctrls.dram.rank1.pwrStateTime::IDLE      4136000                       # Time in different power states (Tick)
system.mem_ctrls.dram.rank1.pwrStateTime::REF      5200000                       # Time in different power states (Tick)
system.mem_ctrls.dram.rank1.pwrStateTime::SREF            0                       # Time in different power states (Tick)
system.mem_ctrls.dram.rank1.pwrStateTime::PRE_PDN            0                       # Time in different power states (Tick)
system.mem_ctrls.dram.rank1.pwrStateTime::ACT    150750000                       # Time in different power states (Tick)
system.mem_ctrls.dram.rank1.pwrStateTime::ACT_PDN            0                       # Time in different power states (Tick)
system.mem_ctrls.power_state.pwrStateResidencyTicks::UNDEFINED    160086000                       # Cumulative time (in ticks) in various power states (Tick)
system.membus.transDist::ReadResp                2629                       # Transaction distribution (Count)
system.membus.transDist::WritebackDirty           503                       # Transaction distribution (Count)
system.membus.transDist::WritebackClean           550                       # Transaction distribution (Count)
system.membus.transDist::CleanEvict              1045                       # Transaction distribution (Count)
system.membus.transDist::ReadExReq                493                       # Transaction distribution (Count)
system.membus.transDist::ReadExResp               493                       # Transaction distribution (Count)
system.membus.transDist::ReadCleanReq            1063                       # Transaction distribution (Count)
system.membus.transDist::ReadSharedReq           1567                       # Transaction distribution (Count)
system.membus.pktCount_system.cpu.icache.mem_side_port::system.mem_ctrls.port         2675                       # Packet count per connected requestor and responder (Count)
system.membus.pktCount_system.cpu.icache.mem_side_port::total         2675                       # Packet count per connected requestor and responder (Count)
system.membus.pktCount_system.cpu.dcache.mem_side_port::system.mem_ctrls.port         5668                       # Packet count per connected requestor and responder (Count)
system.membus.pktCount_system.cpu.dcache.mem_side_port::total         5668                       # Packet count per connected requestor and responder (Count)
system.membus.pktCount::total                    8343                       # Packet count per connected requestor and responder (Count)
system.membus.pktSize_system.cpu.icache.mem_side_port::system.mem_ctrls.port       103168                       # Cumulative packet size per connected requestor and responder (Byte)
system.membus.pktSize_system.cpu.icache.mem_side_port::total       103168                       # Cumulative packet size per connected requestor and responder (Byte)
system.membus.pktSize_system.cpu.dcache.mem_side_port::system.mem_ctrls.port       164032                       # Cumulative packet size per connected requestor and responder (Byte)
system.membus.pktSize_system.cpu.dcache.mem_side_port::total       164032                       # Cumulative packet size per connected requestor and responder (Byte)
system.membus.pktSize::total                   267200                       # Cumulative packet size per connected requestor and responder (Byte)
system.membus.snoops                                0                       # Total snoops (Count)
system.membus.snoopTraffic                          0                       # Total snoop traffic (Byte)
system.membus.snoopFanout::samples               3123                       # Request fanout histogram (Count)
system.membus.snoopFanout::mean              0.002241                       # Request fanout histogram (Count)
system.membus.snoopFanout::stdev             0.047298                       # Request fanout histogram (Count)
system.membus.snoopFanout::underflows               0      0.00%      0.00% # Request fanout histogram (Count)
system.membus.snoopFanout::0                     3116     99.78%     99.78% # Request fanout histogram (Count)
system.membus.snoopFanout::1                        7      0.22%    100.00% # Request fanout histogram (Count)
system.membus.snoopFanout::2                        0      0.00%    100.00% # Request fanout histogram (Count)
system.membus.snoopFanout::3                        0      0.00%    100.00% # Request fanout histogram (Count)
system.membus.snoopFanout::4                        0      0.00%    100.00% # Request fanout histogram (Count)
system.membus.snoopFanout::overflows                0      0.00%    100.00% # Request fanout histogram (Count)
system.membus.snoopFanout::min_value                0                       # Request fanout histogram (Count)
system.membus.snoopFanout::max_value                1                       # Request fanout histogram (Count)
system.membus.snoopFanout::total                 3123                       # Request fanout histogram (Count)
system.membus.power_state.pwrStateResidencyTicks::UNDEFINED    160086000                       # Cumulative time (in ticks) in various power states (Tick)
system.membus.reqLayer2.occupancy             9911500                       # Layer occupancy (ticks) (Tick)
system.membus.reqLayer2.utilization               0.1                       # Layer utilization (Ratio)
system.membus.respLayer1.occupancy            5644000                       # Layer occupancy (ticks) (Tick)
system.membus.respLayer1.utilization              0.0                       # Layer utilization (Ratio)
system.membus.respLayer2.occupancy           10939000                       # Layer occupancy (ticks) (Tick)
system.membus.respLayer2.utilization              0.1                       # Layer utilization (Ratio)
system.membus.snoop_filter.totRequests           5221                       # Total number of requests made to the snoop filter. (Count)
system.membus.snoop_filter.hitSingleRequests         2103                       # Number of requests hitting in the snoop filter with a single holder of the requested data. (Count)
system.membus.snoop_filter.hitMultiRequests            2                       # Number of requests hitting in the snoop filter with multiple (>1) holders of the requested data. (Count)
system.membus.snoop_filter.totSnoops                0                       # Total number of snoops made to the snoop filter. (Count)
system.membus.snoop_filter.hitSingleSnoops            0                       # Number of snoops hitting in the snoop filter with a single holder of the requested data. (Count)
system.membus.snoop_filter.hitMultiSnoops            0                       # Number of snoops hitting in the snoop filter with multiple (>1) holders of the requested data. (Count)
system.voltage_domain.voltage                       1                       # Voltage in Volts (Volt)
system.workload.inst.arm                            0                       # number of arm instructions executed (Count)
system.workload.inst.quiesce                        0                       # number of quiesce instructions executed (Count)

---------- End Simulation Statistics   ----------
