
---------- Begin Simulation Statistics ----------
simSeconds                                   0.295329                       # Number of seconds simulated (Second)
simTicks                                 295329251000                       # Number of ticks simulated (Tick)
finalTick                                295329251000                       # Number of ticks from beginning of simulation (restored from checkpoints and never reset) (Tick)
simFreq                                  1000000000000                       # The number of ticks per simulated second ((Tick/Second))
hostSeconds                                   6842.66                       # Real time elapsed on the host (Second)
hostTickRate                                 43159999                       # The number of ticks simulated per host second (ticks/s) ((Tick/Second))
hostMemory                                    8825884                       # Number of bytes of host memory used (Byte)
simInsts                                   1000000001                       # Number of instructions simulated (Count)
simOps                                     1839090289                       # Number of ops (including micro ops) simulated (Count)
hostInstRate                                   146142                       # Simulator instruction rate (inst/s) ((Count/Second))
hostOpRate                                     268768                       # Simulator op (including micro ops) rate (op/s) ((Count/Second))
system.clk_domain.clock                          1000                       # Clock period in ticks (Tick)
system.cpu0.numCycles                       590658503                       # Number of cpu cycles simulated (Cycle)
system.cpu0.numWorkItemsStarted                     0                       # Number of work items this cpu started (Count)
system.cpu0.numWorkItemsCompleted                   0                       # Number of work items this cpu completed (Count)
system.cpu0.instsAdded                     2055560841                       # Number of instructions added to the IQ (excludes non-spec) (Count)
system.cpu0.nonSpecInstsAdded                  105510                       # Number of non-speculative instructions added to the IQ (Count)
system.cpu0.instsIssued                    1999667786                       # Number of instructions issued (Count)
system.cpu0.squashedInstsIssued               2274695                       # Number of squashed instructions issued (Count)
system.cpu0.squashedInstsExamined           216576014                       # Number of squashed instructions iterated over during squash; mainly for profiling (Count)
system.cpu0.squashedOperandsExamined        356455398                       # Number of squashed operands that are examined and possibly removed from graph (Count)
system.cpu0.squashedNonSpecRemoved             104775                       # Number of squashed non-spec instructions that were removed (Count)
system.cpu0.numIssuedDist::samples          556885789                       # Number of insts issued each cycle (Count)
system.cpu0.numIssuedDist::mean              3.590804                       # Number of insts issued each cycle (Count)
system.cpu0.numIssuedDist::stdev             2.461487                       # Number of insts issued each cycle (Count)
system.cpu0.numIssuedDist::underflows               0      0.00%      0.00% # Number of insts issued each cycle (Count)
system.cpu0.numIssuedDist::0                 88269484     15.85%     15.85% # Number of insts issued each cycle (Count)
system.cpu0.numIssuedDist::1                 55854413     10.03%     25.88% # Number of insts issued each cycle (Count)
system.cpu0.numIssuedDist::2                 62554918     11.23%     37.11% # Number of insts issued each cycle (Count)
system.cpu0.numIssuedDist::3                 57603840     10.34%     47.46% # Number of insts issued each cycle (Count)
system.cpu0.numIssuedDist::4                 72969064     13.10%     60.56% # Number of insts issued each cycle (Count)
system.cpu0.numIssuedDist::5                 68120499     12.23%     72.79% # Number of insts issued each cycle (Count)
system.cpu0.numIssuedDist::6                 71537381     12.85%     85.64% # Number of insts issued each cycle (Count)
system.cpu0.numIssuedDist::7                 55620540      9.99%     95.63% # Number of insts issued each cycle (Count)
system.cpu0.numIssuedDist::8                 24355650      4.37%    100.00% # Number of insts issued each cycle (Count)
system.cpu0.numIssuedDist::overflows                0      0.00%    100.00% # Number of insts issued each cycle (Count)
system.cpu0.numIssuedDist::min_value                0                       # Number of insts issued each cycle (Count)
system.cpu0.numIssuedDist::max_value                8                       # Number of insts issued each cycle (Count)
system.cpu0.numIssuedDist::total            556885789                       # Number of insts issued each cycle (Count)
system.cpu0.statFuBusy::No_OpClass                  0      0.00%      0.00% # attempts to use FU when none available (Count)
system.cpu0.statFuBusy::IntAlu               37777781     80.84%     80.84% # attempts to use FU when none available (Count)
system.cpu0.statFuBusy::IntMult                     0      0.00%     80.84% # attempts to use FU when none available (Count)
system.cpu0.statFuBusy::IntDiv                      0      0.00%     80.84% # attempts to use FU when none available (Count)
system.cpu0.statFuBusy::FloatAdd                    0      0.00%     80.84% # attempts to use FU when none available (Count)
system.cpu0.statFuBusy::FloatCmp                    0      0.00%     80.84% # attempts to use FU when none available (Count)
system.cpu0.statFuBusy::FloatCvt                    2      0.00%     80.84% # attempts to use FU when none available (Count)
system.cpu0.statFuBusy::FloatMult                   0      0.00%     80.84% # attempts to use FU when none available (Count)
system.cpu0.statFuBusy::FloatMultAcc                0      0.00%     80.84% # attempts to use FU when none available (Count)
system.cpu0.statFuBusy::FloatDiv                    0      0.00%     80.84% # attempts to use FU when none available (Count)
system.cpu0.statFuBusy::FloatMisc                   0      0.00%     80.84% # attempts to use FU when none available (Count)
system.cpu0.statFuBusy::FloatSqrt                   0      0.00%     80.84% # attempts to use FU when none available (Count)
system.cpu0.statFuBusy::SimdAdd                     0      0.00%     80.84% # attempts to use FU when none available (Count)
system.cpu0.statFuBusy::SimdAddAcc                  0      0.00%     80.84% # attempts to use FU when none available (Count)
system.cpu0.statFuBusy::SimdAlu                    38      0.00%     80.84% # attempts to use FU when none available (Count)
system.cpu0.statFuBusy::SimdCmp                     0      0.00%     80.84% # attempts to use FU when none available (Count)
system.cpu0.statFuBusy::SimdCvt                    22      0.00%     80.84% # attempts to use FU when none available (Count)
system.cpu0.statFuBusy::SimdMisc                   11      0.00%     80.84% # attempts to use FU when none available (Count)
system.cpu0.statFuBusy::SimdMult                    0      0.00%     80.84% # attempts to use FU when none available (Count)
system.cpu0.statFuBusy::SimdMultAcc                 0      0.00%     80.84% # attempts to use FU when none available (Count)
system.cpu0.statFuBusy::SimdShift                   0      0.00%     80.84% # attempts to use FU when none available (Count)
system.cpu0.statFuBusy::SimdShiftAcc                0      0.00%     80.84% # attempts to use FU when none available (Count)
system.cpu0.statFuBusy::SimdDiv                     0      0.00%     80.84% # attempts to use FU when none available (Count)
system.cpu0.statFuBusy::SimdSqrt                    0      0.00%     80.84% # attempts to use FU when none available (Count)
system.cpu0.statFuBusy::SimdFloatAdd                1      0.00%     80.84% # attempts to use FU when none available (Count)
system.cpu0.statFuBusy::SimdFloatAlu                0      0.00%     80.84% # attempts to use FU when none available (Count)
system.cpu0.statFuBusy::SimdFloatCmp                0      0.00%     80.84% # attempts to use FU when none available (Count)
system.cpu0.statFuBusy::SimdFloatCvt                0      0.00%     80.84% # attempts to use FU when none available (Count)
system.cpu0.statFuBusy::SimdFloatDiv                0      0.00%     80.84% # attempts to use FU when none available (Count)
system.cpu0.statFuBusy::SimdFloatMisc               0      0.00%     80.84% # attempts to use FU when none available (Count)
system.cpu0.statFuBusy::SimdFloatMult               0      0.00%     80.84% # attempts to use FU when none available (Count)
system.cpu0.statFuBusy::SimdFloatMultAcc            0      0.00%     80.84% # attempts to use FU when none available (Count)
system.cpu0.statFuBusy::SimdFloatSqrt               0      0.00%     80.84% # attempts to use FU when none available (Count)
system.cpu0.statFuBusy::SimdReduceAdd               0      0.00%     80.84% # attempts to use FU when none available (Count)
system.cpu0.statFuBusy::SimdReduceAlu               0      0.00%     80.84% # attempts to use FU when none available (Count)
system.cpu0.statFuBusy::SimdReduceCmp               0      0.00%     80.84% # attempts to use FU when none available (Count)
system.cpu0.statFuBusy::SimdFloatReduceAdd            0      0.00%     80.84% # attempts to use FU when none available (Count)
system.cpu0.statFuBusy::SimdFloatReduceCmp            0      0.00%     80.84% # attempts to use FU when none available (Count)
system.cpu0.statFuBusy::SimdAes                     0      0.00%     80.84% # attempts to use FU when none available (Count)
system.cpu0.statFuBusy::SimdAesMix                  0      0.00%     80.84% # attempts to use FU when none available (Count)
system.cpu0.statFuBusy::SimdSha1Hash                0      0.00%     80.84% # attempts to use FU when none available (Count)
system.cpu0.statFuBusy::SimdSha1Hash2               0      0.00%     80.84% # attempts to use FU when none available (Count)
system.cpu0.statFuBusy::SimdSha256Hash              0      0.00%     80.84% # attempts to use FU when none available (Count)
system.cpu0.statFuBusy::SimdSha256Hash2             0      0.00%     80.84% # attempts to use FU when none available (Count)
system.cpu0.statFuBusy::SimdShaSigma2               0      0.00%     80.84% # attempts to use FU when none available (Count)
system.cpu0.statFuBusy::SimdShaSigma3               0      0.00%     80.84% # attempts to use FU when none available (Count)
system.cpu0.statFuBusy::SimdPredAlu                 0      0.00%     80.84% # attempts to use FU when none available (Count)
system.cpu0.statFuBusy::MemRead               5897407     12.62%     93.46% # attempts to use FU when none available (Count)
system.cpu0.statFuBusy::MemWrite              2261912      4.84%     98.30% # attempts to use FU when none available (Count)
system.cpu0.statFuBusy::FloatMemRead           680191      1.46%     99.76% # attempts to use FU when none available (Count)
system.cpu0.statFuBusy::FloatMemWrite          112089      0.24%    100.00% # attempts to use FU when none available (Count)
system.cpu0.statFuBusy::IprAccess                   0      0.00%    100.00% # attempts to use FU when none available (Count)
system.cpu0.statFuBusy::InstPrefetch                0      0.00%    100.00% # attempts to use FU when none available (Count)
system.cpu0.statIssuedInstType_0::No_OpClass      3874619      0.19%      0.19% # Number of instructions issued per FU type, per thread (Count)
system.cpu0.statIssuedInstType_0::IntAlu   1546434968     77.33%     77.53% # Number of instructions issued per FU type, per thread (Count)
system.cpu0.statIssuedInstType_0::IntMult     14273788      0.71%     78.24% # Number of instructions issued per FU type, per thread (Count)
system.cpu0.statIssuedInstType_0::IntDiv       172172      0.01%     78.25% # Number of instructions issued per FU type, per thread (Count)
system.cpu0.statIssuedInstType_0::FloatAdd        73162      0.00%     78.25% # Number of instructions issued per FU type, per thread (Count)
system.cpu0.statIssuedInstType_0::FloatCmp            0      0.00%     78.25% # Number of instructions issued per FU type, per thread (Count)
system.cpu0.statIssuedInstType_0::FloatCvt         1158      0.00%     78.25% # Number of instructions issued per FU type, per thread (Count)
system.cpu0.statIssuedInstType_0::FloatMult            0      0.00%     78.25% # Number of instructions issued per FU type, per thread (Count)
system.cpu0.statIssuedInstType_0::FloatMultAcc            0      0.00%     78.25% # Number of instructions issued per FU type, per thread (Count)
system.cpu0.statIssuedInstType_0::FloatDiv            0      0.00%     78.25% # Number of instructions issued per FU type, per thread (Count)
system.cpu0.statIssuedInstType_0::FloatMisc            0      0.00%     78.25% # Number of instructions issued per FU type, per thread (Count)
system.cpu0.statIssuedInstType_0::FloatSqrt            0      0.00%     78.25% # Number of instructions issued per FU type, per thread (Count)
system.cpu0.statIssuedInstType_0::SimdAdd       144550      0.01%     78.26% # Number of instructions issued per FU type, per thread (Count)
system.cpu0.statIssuedInstType_0::SimdAddAcc            0      0.00%     78.26% # Number of instructions issued per FU type, per thread (Count)
system.cpu0.statIssuedInstType_0::SimdAlu        12671      0.00%     78.26% # Number of instructions issued per FU type, per thread (Count)
system.cpu0.statIssuedInstType_0::SimdCmp            0      0.00%     78.26% # Number of instructions issued per FU type, per thread (Count)
system.cpu0.statIssuedInstType_0::SimdCvt          522      0.00%     78.26% # Number of instructions issued per FU type, per thread (Count)
system.cpu0.statIssuedInstType_0::SimdMisc        78565      0.00%     78.27% # Number of instructions issued per FU type, per thread (Count)
system.cpu0.statIssuedInstType_0::SimdMult            0      0.00%     78.27% # Number of instructions issued per FU type, per thread (Count)
system.cpu0.statIssuedInstType_0::SimdMultAcc            0      0.00%     78.27% # Number of instructions issued per FU type, per thread (Count)
system.cpu0.statIssuedInstType_0::SimdShift          912      0.00%     78.27% # Number of instructions issued per FU type, per thread (Count)
system.cpu0.statIssuedInstType_0::SimdShiftAcc            0      0.00%     78.27% # Number of instructions issued per FU type, per thread (Count)
system.cpu0.statIssuedInstType_0::SimdDiv            0      0.00%     78.27% # Number of instructions issued per FU type, per thread (Count)
system.cpu0.statIssuedInstType_0::SimdSqrt            0      0.00%     78.27% # Number of instructions issued per FU type, per thread (Count)
system.cpu0.statIssuedInstType_0::SimdFloatAdd          147      0.00%     78.27% # Number of instructions issued per FU type, per thread (Count)
system.cpu0.statIssuedInstType_0::SimdFloatAlu            0      0.00%     78.27% # Number of instructions issued per FU type, per thread (Count)
system.cpu0.statIssuedInstType_0::SimdFloatCmp            0      0.00%     78.27% # Number of instructions issued per FU type, per thread (Count)
system.cpu0.statIssuedInstType_0::SimdFloatCvt          149      0.00%     78.27% # Number of instructions issued per FU type, per thread (Count)
system.cpu0.statIssuedInstType_0::SimdFloatDiv            0      0.00%     78.27% # Number of instructions issued per FU type, per thread (Count)
system.cpu0.statIssuedInstType_0::SimdFloatMisc            0      0.00%     78.27% # Number of instructions issued per FU type, per thread (Count)
system.cpu0.statIssuedInstType_0::SimdFloatMult            0      0.00%     78.27% # Number of instructions issued per FU type, per thread (Count)
system.cpu0.statIssuedInstType_0::SimdFloatMultAcc            0      0.00%     78.27% # Number of instructions issued per FU type, per thread (Count)
system.cpu0.statIssuedInstType_0::SimdFloatSqrt            0      0.00%     78.27% # Number of instructions issued per FU type, per thread (Count)
system.cpu0.statIssuedInstType_0::SimdReduceAdd            0      0.00%     78.27% # Number of instructions issued per FU type, per thread (Count)
system.cpu0.statIssuedInstType_0::SimdReduceAlu            0      0.00%     78.27% # Number of instructions issued per FU type, per thread (Count)
system.cpu0.statIssuedInstType_0::SimdReduceCmp            0      0.00%     78.27% # Number of instructions issued per FU type, per thread (Count)
system.cpu0.statIssuedInstType_0::SimdFloatReduceAdd            0      0.00%     78.27% # Number of instructions issued per FU type, per thread (Count)
system.cpu0.statIssuedInstType_0::SimdFloatReduceCmp            0      0.00%     78.27% # Number of instructions issued per FU type, per thread (Count)
system.cpu0.statIssuedInstType_0::SimdAes            0      0.00%     78.27% # Number of instructions issued per FU type, per thread (Count)
system.cpu0.statIssuedInstType_0::SimdAesMix            0      0.00%     78.27% # Number of instructions issued per FU type, per thread (Count)
system.cpu0.statIssuedInstType_0::SimdSha1Hash            0      0.00%     78.27% # Number of instructions issued per FU type, per thread (Count)
system.cpu0.statIssuedInstType_0::SimdSha1Hash2            0      0.00%     78.27% # Number of instructions issued per FU type, per thread (Count)
system.cpu0.statIssuedInstType_0::SimdSha256Hash            0      0.00%     78.27% # Number of instructions issued per FU type, per thread (Count)
system.cpu0.statIssuedInstType_0::SimdSha256Hash2            0      0.00%     78.27% # Number of instructions issued per FU type, per thread (Count)
system.cpu0.statIssuedInstType_0::SimdShaSigma2            0      0.00%     78.27% # Number of instructions issued per FU type, per thread (Count)
system.cpu0.statIssuedInstType_0::SimdShaSigma3            0      0.00%     78.27% # Number of instructions issued per FU type, per thread (Count)
system.cpu0.statIssuedInstType_0::SimdPredAlu            0      0.00%     78.27% # Number of instructions issued per FU type, per thread (Count)
system.cpu0.statIssuedInstType_0::MemRead    278641906     13.93%     92.20% # Number of instructions issued per FU type, per thread (Count)
system.cpu0.statIssuedInstType_0::MemWrite    145582132      7.28%     99.48% # Number of instructions issued per FU type, per thread (Count)
system.cpu0.statIssuedInstType_0::FloatMemRead      8112565      0.41%     99.89% # Number of instructions issued per FU type, per thread (Count)
system.cpu0.statIssuedInstType_0::FloatMemWrite      2263800      0.11%    100.00% # Number of instructions issued per FU type, per thread (Count)
system.cpu0.statIssuedInstType_0::IprAccess            0      0.00%    100.00% # Number of instructions issued per FU type, per thread (Count)
system.cpu0.statIssuedInstType_0::InstPrefetch            0      0.00%    100.00% # Number of instructions issued per FU type, per thread (Count)
system.cpu0.statIssuedInstType_0::total    1999667786                       # Number of instructions issued per FU type, per thread (Count)
system.cpu0.issueRate                        3.385489                       # Inst issue rate ((Count/Cycle))
system.cpu0.fuBusy                           46729454                       # FU busy when requested (Count)
system.cpu0.fuBusyRate                       0.023369                       # FU busy rate (busy events/executed inst) ((Count/Count))
system.cpu0.intInstQueueReads              4579874038                       # Number of integer instruction queue reads (Count)
system.cpu0.intInstQueueWrites             2257248849                       # Number of integer instruction queue writes (Count)
system.cpu0.intInstQueueWakeupAccesses     1959599399                       # Number of integer instruction queue wakeup accesses (Count)
system.cpu0.fpInstQueueReads                 25351465                       # Number of floating instruction queue reads (Count)
system.cpu0.fpInstQueueWrites                15175756                       # Number of floating instruction queue writes (Count)
system.cpu0.fpInstQueueWakeupAccesses        11463754                       # Number of floating instruction queue wakeup accesses (Count)
system.cpu0.vecInstQueueReads                       0                       # Number of vector instruction queue reads (Count)
system.cpu0.vecInstQueueWrites                      0                       # Number of vector instruction queue writes (Count)
system.cpu0.vecInstQueueWakeupAccesses              0                       # Number of vector instruction queue wakeup accesses (Count)
system.cpu0.intAluAccesses                 2029375375                       # Number of integer alu accesses (Count)
system.cpu0.fpAluAccesses                    13147246                       # Number of floating point alu accesses (Count)
system.cpu0.vecAluAccesses                          0                       # Number of vector alu accesses (Count)
system.cpu0.numInsts                       1980607427                       # Number of executed instructions (Count)
system.cpu0.numLoadInsts                    282143475                       # Number of load instructions executed (Count)
system.cpu0.numSquashedInsts                 19060352                       # Number of squashed instructions skipped in execute (Count)
system.cpu0.numSwp                                  0                       # Number of swp insts executed (Count)
system.cpu0.numNop                                  0                       # Number of nop insts executed (Count)
system.cpu0.numRefs                         428178872                       # Number of memory reference insts executed (Count)
system.cpu0.numBranches                     181877504                       # Number of branches executed (Count)
system.cpu0.numStoreInsts                   146035397                       # Number of stores executed (Count)
system.cpu0.numRate                          3.353219                       # Inst execution rate ((Count/Cycle))
system.cpu0.timesIdled                         358809                       # Number of times that the entire CPU went into an idle state and unscheduled itself (Count)
system.cpu0.idleCycles                       33772714                       # Total number of cycles that the CPU has spent unscheduled due to idling (Cycle)
system.cpu0.committedInsts                 1000000001                       # Number of Instructions Simulated (Count)
system.cpu0.committedOps                   1839090289                       # Number of Ops (including micro ops) Simulated (Count)
system.cpu0.cpi                              0.590659                       # CPI: Cycles Per Instruction ((Cycle/Count))
system.cpu0.totalCpi                         0.590659                       # CPI: Total CPI of All Threads ((Cycle/Count))
system.cpu0.ipc                              1.693026                       # IPC: Instructions Per Cycle ((Count/Cycle))
system.cpu0.totalIpc                         1.693026                       # IPC: Total IPC of All Threads ((Count/Cycle))
system.cpu0.intRegfileReads                2525713734                       # Number of integer regfile reads (Count)
system.cpu0.intRegfileWrites               1442344757                       # Number of integer regfile writes (Count)
system.cpu0.fpRegfileReads                    5869641                       # Number of floating regfile reads (Count)
system.cpu0.fpRegfileWrites                   9393514                       # Number of floating regfile writes (Count)
system.cpu0.ccRegfileReads                 1065929123                       # number of cc regfile reads (Count)
system.cpu0.ccRegfileWrites                 938041392                       # number of cc regfile writes (Count)
system.cpu0.miscRegfileReads                809725281                       # number of misc regfile reads (Count)
system.cpu0.miscRegfileWrites                     495                       # number of misc regfile writes (Count)
system.cpu0.MemDepUnit__0.insertedLoads     291833422                       # Number of loads inserted to the mem dependence unit. (Count)
system.cpu0.MemDepUnit__0.insertedStores    155385528                       # Number of stores inserted to the mem dependence unit. (Count)
system.cpu0.MemDepUnit__0.conflictingLoads     30011204                       # Number of conflicting loads. (Count)
system.cpu0.MemDepUnit__0.conflictingStores     24693233                       # Number of conflicting stores. (Count)
system.cpu0.MemDepUnit__1.insertedLoads             0                       # Number of loads inserted to the mem dependence unit. (Count)
system.cpu0.MemDepUnit__1.insertedStores            0                       # Number of stores inserted to the mem dependence unit. (Count)
system.cpu0.MemDepUnit__1.conflictingLoads            0                       # Number of conflicting loads. (Count)
system.cpu0.MemDepUnit__1.conflictingStores            0                       # Number of conflicting stores. (Count)
system.cpu0.MemDepUnit__2.insertedLoads             0                       # Number of loads inserted to the mem dependence unit. (Count)
system.cpu0.MemDepUnit__2.insertedStores            0                       # Number of stores inserted to the mem dependence unit. (Count)
system.cpu0.MemDepUnit__2.conflictingLoads            0                       # Number of conflicting loads. (Count)
system.cpu0.MemDepUnit__2.conflictingStores            0                       # Number of conflicting stores. (Count)
system.cpu0.MemDepUnit__3.insertedLoads             0                       # Number of loads inserted to the mem dependence unit. (Count)
system.cpu0.MemDepUnit__3.insertedStores            0                       # Number of stores inserted to the mem dependence unit. (Count)
system.cpu0.MemDepUnit__3.conflictingLoads            0                       # Number of conflicting loads. (Count)
system.cpu0.MemDepUnit__3.conflictingStores            0                       # Number of conflicting stores. (Count)
system.cpu0.branchPred.lookups              206436336                       # Number of BP lookups (Count)
system.cpu0.branchPred.condPredicted        185842406                       # Number of conditional branches predicted (Count)
system.cpu0.branchPred.condIncorrect          7188336                       # Number of conditional branches incorrect (Count)
system.cpu0.branchPred.BTBLookups           109175561                       # Number of BTB lookups (Count)
system.cpu0.branchPred.BTBHits              108491196                       # Number of BTB hits (Count)
system.cpu0.branchPred.BTBHitRatio           0.993732                       # BTB Hit Ratio (Ratio)
system.cpu0.branchPred.RASUsed                1243146                       # Number of times the RAS was used to get a target. (Count)
system.cpu0.branchPred.RASIncorrect                19                       # Number of incorrect RAS predictions. (Count)
system.cpu0.branchPred.indirectLookups         800654                       # Number of indirect predictor lookups. (Count)
system.cpu0.branchPred.indirectHits            780871                       # Number of indirect target hits. (Count)
system.cpu0.branchPred.indirectMisses           19783                       # Number of indirect misses. (Count)
system.cpu0.branchPred.indirectMispredicted          969                       # Number of mispredicted indirect branches. (Count)
system.cpu0.commit.commitSquashedInsts      216570847                       # The number of squashed insts skipped by commit (Count)
system.cpu0.commit.commitNonSpecStalls            735                       # The number of times commit has been forced to stall to communicate backwards (Count)
system.cpu0.commit.branchMispredicts          6993014                       # The number of times a branch was mispredicted (Count)
system.cpu0.commit.numCommittedDist::samples    525989429                       # Number of insts commited each cycle (Count)
system.cpu0.commit.numCommittedDist::mean     3.496440                       # Number of insts commited each cycle (Count)
system.cpu0.commit.numCommittedDist::stdev     3.158640                       # Number of insts commited each cycle (Count)
system.cpu0.commit.numCommittedDist::underflows            0      0.00%      0.00% # Number of insts commited each cycle (Count)
system.cpu0.commit.numCommittedDist::0      108749609     20.68%     20.68% # Number of insts commited each cycle (Count)
system.cpu0.commit.numCommittedDist::1      119726302     22.76%     43.44% # Number of insts commited each cycle (Count)
system.cpu0.commit.numCommittedDist::2       30314348      5.76%     49.20% # Number of insts commited each cycle (Count)
system.cpu0.commit.numCommittedDist::3       53095913     10.09%     59.30% # Number of insts commited each cycle (Count)
system.cpu0.commit.numCommittedDist::4       26029745      4.95%     64.24% # Number of insts commited each cycle (Count)
system.cpu0.commit.numCommittedDist::5       16293950      3.10%     67.34% # Number of insts commited each cycle (Count)
system.cpu0.commit.numCommittedDist::6       23584563      4.48%     71.83% # Number of insts commited each cycle (Count)
system.cpu0.commit.numCommittedDist::7       13208548      2.51%     74.34% # Number of insts commited each cycle (Count)
system.cpu0.commit.numCommittedDist::8      134986451     25.66%    100.00% # Number of insts commited each cycle (Count)
system.cpu0.commit.numCommittedDist::overflows            0      0.00%    100.00% # Number of insts commited each cycle (Count)
system.cpu0.commit.numCommittedDist::min_value            0                       # Number of insts commited each cycle (Count)
system.cpu0.commit.numCommittedDist::max_value            8                       # Number of insts commited each cycle (Count)
system.cpu0.commit.numCommittedDist::total    525989429                       # Number of insts commited each cycle (Count)
system.cpu0.commit.instsCommitted          1000000001                       # Number of instructions committed (Count)
system.cpu0.commit.opsCommitted            1839090289                       # Number of ops (including micro ops) committed (Count)
system.cpu0.commit.memRefs                  396878213                       # Number of memory references committed (Count)
system.cpu0.commit.loads                    257636639                       # Number of loads committed (Count)
system.cpu0.commit.amos                             0                       # Number of atomic instructions committed (Count)
system.cpu0.commit.membars                        160                       # Number of memory barriers committed (Count)
system.cpu0.commit.branches                 173706088                       # Number of branches committed (Count)
system.cpu0.commit.vectorInstructions               0                       # Number of committed Vector instructions. (Count)
system.cpu0.commit.floating                  10230934                       # Number of committed floating point instructions. (Count)
system.cpu0.commit.integer                 1832900779                       # Number of committed integer instructions. (Count)
system.cpu0.commit.functionCalls              1140727                       # Number of function calls committed. (Count)
system.cpu0.commit.committedInstType_0::No_OpClass      3791851      0.21%      0.21% # Class of committed instruction (Count)
system.cpu0.commit.committedInstType_0::IntAlu   1424511841     77.46%     77.66% # Class of committed instruction (Count)
system.cpu0.commit.committedInstType_0::IntMult     13463964      0.73%     78.40% # Class of committed instruction (Count)
system.cpu0.commit.committedInstType_0::IntDiv       169544      0.01%     78.40% # Class of committed instruction (Count)
system.cpu0.commit.committedInstType_0::FloatAdd        45995      0.00%     78.41% # Class of committed instruction (Count)
system.cpu0.commit.committedInstType_0::FloatCmp            0      0.00%     78.41% # Class of committed instruction (Count)
system.cpu0.commit.committedInstType_0::FloatCvt          880      0.00%     78.41% # Class of committed instruction (Count)
system.cpu0.commit.committedInstType_0::FloatMult            0      0.00%     78.41% # Class of committed instruction (Count)
system.cpu0.commit.committedInstType_0::FloatMultAcc            0      0.00%     78.41% # Class of committed instruction (Count)
system.cpu0.commit.committedInstType_0::FloatDiv            0      0.00%     78.41% # Class of committed instruction (Count)
system.cpu0.commit.committedInstType_0::FloatMisc            0      0.00%     78.41% # Class of committed instruction (Count)
system.cpu0.commit.committedInstType_0::FloatSqrt            0      0.00%     78.41% # Class of committed instruction (Count)
system.cpu0.commit.committedInstType_0::SimdAdd       143022      0.01%     78.42% # Class of committed instruction (Count)
system.cpu0.commit.committedInstType_0::SimdAddAcc            0      0.00%     78.42% # Class of committed instruction (Count)
system.cpu0.commit.committedInstType_0::SimdAlu         7018      0.00%     78.42% # Class of committed instruction (Count)
system.cpu0.commit.committedInstType_0::SimdCmp            0      0.00%     78.42% # Class of committed instruction (Count)
system.cpu0.commit.committedInstType_0::SimdCvt          404      0.00%     78.42% # Class of committed instruction (Count)
system.cpu0.commit.committedInstType_0::SimdMisc        77279      0.00%     78.42% # Class of committed instruction (Count)
system.cpu0.commit.committedInstType_0::SimdMult            0      0.00%     78.42% # Class of committed instruction (Count)
system.cpu0.commit.committedInstType_0::SimdMultAcc            0      0.00%     78.42% # Class of committed instruction (Count)
system.cpu0.commit.committedInstType_0::SimdShift            0      0.00%     78.42% # Class of committed instruction (Count)
system.cpu0.commit.committedInstType_0::SimdShiftAcc            0      0.00%     78.42% # Class of committed instruction (Count)
system.cpu0.commit.committedInstType_0::SimdDiv            0      0.00%     78.42% # Class of committed instruction (Count)
system.cpu0.commit.committedInstType_0::SimdSqrt            0      0.00%     78.42% # Class of committed instruction (Count)
system.cpu0.commit.committedInstType_0::SimdFloatAdd          147      0.00%     78.42% # Class of committed instruction (Count)
system.cpu0.commit.committedInstType_0::SimdFloatAlu            0      0.00%     78.42% # Class of committed instruction (Count)
system.cpu0.commit.committedInstType_0::SimdFloatCmp            0      0.00%     78.42% # Class of committed instruction (Count)
system.cpu0.commit.committedInstType_0::SimdFloatCvt          131      0.00%     78.42% # Class of committed instruction (Count)
system.cpu0.commit.committedInstType_0::SimdFloatDiv            0      0.00%     78.42% # Class of committed instruction (Count)
system.cpu0.commit.committedInstType_0::SimdFloatMisc            0      0.00%     78.42% # Class of committed instruction (Count)
system.cpu0.commit.committedInstType_0::SimdFloatMult            0      0.00%     78.42% # Class of committed instruction (Count)
system.cpu0.commit.committedInstType_0::SimdFloatMultAcc            0      0.00%     78.42% # Class of committed instruction (Count)
system.cpu0.commit.committedInstType_0::SimdFloatSqrt            0      0.00%     78.42% # Class of committed instruction (Count)
system.cpu0.commit.committedInstType_0::SimdReduceAdd            0      0.00%     78.42% # Class of committed instruction (Count)
system.cpu0.commit.committedInstType_0::SimdReduceAlu            0      0.00%     78.42% # Class of committed instruction (Count)
system.cpu0.commit.committedInstType_0::SimdReduceCmp            0      0.00%     78.42% # Class of committed instruction (Count)
system.cpu0.commit.committedInstType_0::SimdFloatReduceAdd            0      0.00%     78.42% # Class of committed instruction (Count)
system.cpu0.commit.committedInstType_0::SimdFloatReduceCmp            0      0.00%     78.42% # Class of committed instruction (Count)
system.cpu0.commit.committedInstType_0::SimdAes            0      0.00%     78.42% # Class of committed instruction (Count)
system.cpu0.commit.committedInstType_0::SimdAesMix            0      0.00%     78.42% # Class of committed instruction (Count)
system.cpu0.commit.committedInstType_0::SimdSha1Hash            0      0.00%     78.42% # Class of committed instruction (Count)
system.cpu0.commit.committedInstType_0::SimdSha1Hash2            0      0.00%     78.42% # Class of committed instruction (Count)
system.cpu0.commit.committedInstType_0::SimdSha256Hash            0      0.00%     78.42% # Class of committed instruction (Count)
system.cpu0.commit.committedInstType_0::SimdSha256Hash2            0      0.00%     78.42% # Class of committed instruction (Count)
system.cpu0.commit.committedInstType_0::SimdShaSigma2            0      0.00%     78.42% # Class of committed instruction (Count)
system.cpu0.commit.committedInstType_0::SimdShaSigma3            0      0.00%     78.42% # Class of committed instruction (Count)
system.cpu0.commit.committedInstType_0::SimdPredAlu            0      0.00%     78.42% # Class of committed instruction (Count)
system.cpu0.commit.committedInstType_0::MemRead    250959983     13.65%     92.07% # Class of committed instruction (Count)
system.cpu0.commit.committedInstType_0::MemWrite    137454255      7.47%     99.54% # Class of committed instruction (Count)
system.cpu0.commit.committedInstType_0::FloatMemRead      6676656      0.36%     99.90% # Class of committed instruction (Count)
system.cpu0.commit.committedInstType_0::FloatMemWrite      1787319      0.10%    100.00% # Class of committed instruction (Count)
system.cpu0.commit.committedInstType_0::IprAccess            0      0.00%    100.00% # Class of committed instruction (Count)
system.cpu0.commit.committedInstType_0::InstPrefetch            0      0.00%    100.00% # Class of committed instruction (Count)
system.cpu0.commit.committedInstType_0::total   1839090289                       # Class of committed instruction (Count)
system.cpu0.commit.commitEligibleSamples    134986451                       # number cycles where commit BW limit reached (Cycle)
system.cpu0.dcache.demandHits::cpu0.data    399138045                       # number of demand (read+write) hits (Count)
system.cpu0.dcache.demandHits::total        399138045                       # number of demand (read+write) hits (Count)
system.cpu0.dcache.overallHits::cpu0.data    399138045                       # number of overall hits (Count)
system.cpu0.dcache.overallHits::total       399138045                       # number of overall hits (Count)
system.cpu0.dcache.demandMisses::cpu0.data        24499                       # number of demand (read+write) misses (Count)
system.cpu0.dcache.demandMisses::total          24499                       # number of demand (read+write) misses (Count)
system.cpu0.dcache.overallMisses::cpu0.data        24499                       # number of overall misses (Count)
system.cpu0.dcache.overallMisses::total         24499                       # number of overall misses (Count)
system.cpu0.dcache.demandMissLatency::cpu0.data   1434643979                       # number of demand (read+write) miss ticks (Tick)
system.cpu0.dcache.demandMissLatency::total   1434643979                       # number of demand (read+write) miss ticks (Tick)
system.cpu0.dcache.overallMissLatency::cpu0.data   1434643979                       # number of overall miss ticks (Tick)
system.cpu0.dcache.overallMissLatency::total   1434643979                       # number of overall miss ticks (Tick)
system.cpu0.dcache.demandAccesses::cpu0.data    399162544                       # number of demand (read+write) accesses (Count)
system.cpu0.dcache.demandAccesses::total    399162544                       # number of demand (read+write) accesses (Count)
system.cpu0.dcache.overallAccesses::cpu0.data    399162544                       # number of overall (read+write) accesses (Count)
system.cpu0.dcache.overallAccesses::total    399162544                       # number of overall (read+write) accesses (Count)
system.cpu0.dcache.demandMissRate::cpu0.data     0.000061                       # miss rate for demand accesses (Ratio)
system.cpu0.dcache.demandMissRate::total     0.000061                       # miss rate for demand accesses (Ratio)
system.cpu0.dcache.overallMissRate::cpu0.data     0.000061                       # miss rate for overall accesses (Ratio)
system.cpu0.dcache.overallMissRate::total     0.000061                       # miss rate for overall accesses (Ratio)
system.cpu0.dcache.demandAvgMissLatency::cpu0.data 58559.287277                       # average overall miss latency in ticks ((Tick/Count))
system.cpu0.dcache.demandAvgMissLatency::total 58559.287277                       # average overall miss latency in ticks ((Tick/Count))
system.cpu0.dcache.overallAvgMissLatency::cpu0.data 58559.287277                       # average overall miss latency ((Tick/Count))
system.cpu0.dcache.overallAvgMissLatency::total 58559.287277                       # average overall miss latency ((Tick/Count))
system.cpu0.dcache.blockedCycles::no_mshrs        24050                       # number of cycles access was blocked (Cycle)
system.cpu0.dcache.blockedCycles::no_targets          567                       # number of cycles access was blocked (Cycle)
system.cpu0.dcache.blockedCauses::no_mshrs          496                       # number of times access was blocked (Count)
system.cpu0.dcache.blockedCauses::no_targets            5                       # number of times access was blocked (Count)
system.cpu0.dcache.avgBlocked::no_mshrs     48.487903                       # average number of cycles each access was blocked ((Cycle/Count))
system.cpu0.dcache.avgBlocked::no_targets   113.400000                       # average number of cycles each access was blocked ((Cycle/Count))
system.cpu0.dcache.writebacks::writebacks         2103                       # number of writebacks (Count)
system.cpu0.dcache.writebacks::total             2103                       # number of writebacks (Count)
system.cpu0.dcache.demandMshrHits::cpu0.data        15172                       # number of demand (read+write) MSHR hits (Count)
system.cpu0.dcache.demandMshrHits::total        15172                       # number of demand (read+write) MSHR hits (Count)
system.cpu0.dcache.overallMshrHits::cpu0.data        15172                       # number of overall MSHR hits (Count)
system.cpu0.dcache.overallMshrHits::total        15172                       # number of overall MSHR hits (Count)
system.cpu0.dcache.demandMshrMisses::cpu0.data         9327                       # number of demand (read+write) MSHR misses (Count)
system.cpu0.dcache.demandMshrMisses::total         9327                       # number of demand (read+write) MSHR misses (Count)
system.cpu0.dcache.overallMshrMisses::cpu0.data         9327                       # number of overall MSHR misses (Count)
system.cpu0.dcache.overallMshrMisses::total         9327                       # number of overall MSHR misses (Count)
system.cpu0.dcache.demandMshrMissLatency::cpu0.data    618281479                       # number of demand (read+write) MSHR miss ticks (Tick)
system.cpu0.dcache.demandMshrMissLatency::total    618281479                       # number of demand (read+write) MSHR miss ticks (Tick)
system.cpu0.dcache.overallMshrMissLatency::cpu0.data    618281479                       # number of overall MSHR miss ticks (Tick)
system.cpu0.dcache.overallMshrMissLatency::total    618281479                       # number of overall MSHR miss ticks (Tick)
system.cpu0.dcache.demandMshrMissRate::cpu0.data     0.000023                       # mshr miss ratio for demand accesses (Ratio)
system.cpu0.dcache.demandMshrMissRate::total     0.000023                       # mshr miss ratio for demand accesses (Ratio)
system.cpu0.dcache.overallMshrMissRate::cpu0.data     0.000023                       # mshr miss ratio for overall accesses (Ratio)
system.cpu0.dcache.overallMshrMissRate::total     0.000023                       # mshr miss ratio for overall accesses (Ratio)
system.cpu0.dcache.demandAvgMshrMissLatency::cpu0.data 66289.426289                       # average overall mshr miss latency ((Tick/Count))
system.cpu0.dcache.demandAvgMshrMissLatency::total 66289.426289                       # average overall mshr miss latency ((Tick/Count))
system.cpu0.dcache.overallAvgMshrMissLatency::cpu0.data 66289.426289                       # average overall mshr miss latency ((Tick/Count))
system.cpu0.dcache.overallAvgMshrMissLatency::total 66289.426289                       # average overall mshr miss latency ((Tick/Count))
system.cpu0.dcache.replacements                  8813                       # number of replacements (Count)
system.cpu0.dcache.LockedRMWReadReq.hits::cpu0.data           80                       # number of LockedRMWReadReq hits (Count)
system.cpu0.dcache.LockedRMWReadReq.hits::total           80                       # number of LockedRMWReadReq hits (Count)
system.cpu0.dcache.LockedRMWReadReq.accesses::cpu0.data           80                       # number of LockedRMWReadReq accesses(hits+misses) (Count)
system.cpu0.dcache.LockedRMWReadReq.accesses::total           80                       # number of LockedRMWReadReq accesses(hits+misses) (Count)
system.cpu0.dcache.LockedRMWReadReq.mshrMissLatency::cpu0.data       241000                       # number of LockedRMWReadReq MSHR miss ticks (Tick)
system.cpu0.dcache.LockedRMWReadReq.mshrMissLatency::total       241000                       # number of LockedRMWReadReq MSHR miss ticks (Tick)
system.cpu0.dcache.LockedRMWReadReq.avgMshrMissLatency::cpu0.data          inf                       # average LockedRMWReadReq mshr miss latency ((Tick/Count))
system.cpu0.dcache.LockedRMWReadReq.avgMshrMissLatency::total          inf                       # average LockedRMWReadReq mshr miss latency ((Tick/Count))
system.cpu0.dcache.LockedRMWWriteReq.hits::cpu0.data           80                       # number of LockedRMWWriteReq hits (Count)
system.cpu0.dcache.LockedRMWWriteReq.hits::total           80                       # number of LockedRMWWriteReq hits (Count)
system.cpu0.dcache.LockedRMWWriteReq.accesses::cpu0.data           80                       # number of LockedRMWWriteReq accesses(hits+misses) (Count)
system.cpu0.dcache.LockedRMWWriteReq.accesses::total           80                       # number of LockedRMWWriteReq accesses(hits+misses) (Count)
system.cpu0.dcache.ReadReq.hits::cpu0.data    259888299                       # number of ReadReq hits (Count)
system.cpu0.dcache.ReadReq.hits::total      259888299                       # number of ReadReq hits (Count)
system.cpu0.dcache.ReadReq.misses::cpu0.data        22519                       # number of ReadReq misses (Count)
system.cpu0.dcache.ReadReq.misses::total        22519                       # number of ReadReq misses (Count)
system.cpu0.dcache.ReadReq.missLatency::cpu0.data   1315958500                       # number of ReadReq miss ticks (Tick)
system.cpu0.dcache.ReadReq.missLatency::total   1315958500                       # number of ReadReq miss ticks (Tick)
system.cpu0.dcache.ReadReq.accesses::cpu0.data    259910818                       # number of ReadReq accesses(hits+misses) (Count)
system.cpu0.dcache.ReadReq.accesses::total    259910818                       # number of ReadReq accesses(hits+misses) (Count)
system.cpu0.dcache.ReadReq.missRate::cpu0.data     0.000087                       # miss rate for ReadReq accesses (Ratio)
system.cpu0.dcache.ReadReq.missRate::total     0.000087                       # miss rate for ReadReq accesses (Ratio)
system.cpu0.dcache.ReadReq.avgMissLatency::cpu0.data 58437.697056                       # average ReadReq miss latency ((Tick/Count))
system.cpu0.dcache.ReadReq.avgMissLatency::total 58437.697056                       # average ReadReq miss latency ((Tick/Count))
system.cpu0.dcache.ReadReq.mshrHits::cpu0.data        15158                       # number of ReadReq MSHR hits (Count)
system.cpu0.dcache.ReadReq.mshrHits::total        15158                       # number of ReadReq MSHR hits (Count)
system.cpu0.dcache.ReadReq.mshrMisses::cpu0.data         7361                       # number of ReadReq MSHR misses (Count)
system.cpu0.dcache.ReadReq.mshrMisses::total         7361                       # number of ReadReq MSHR misses (Count)
system.cpu0.dcache.ReadReq.mshrMissLatency::cpu0.data    502193500                       # number of ReadReq MSHR miss ticks (Tick)
system.cpu0.dcache.ReadReq.mshrMissLatency::total    502193500                       # number of ReadReq MSHR miss ticks (Tick)
system.cpu0.dcache.ReadReq.mshrMissRate::cpu0.data     0.000028                       # mshr miss rate for ReadReq accesses (Ratio)
system.cpu0.dcache.ReadReq.mshrMissRate::total     0.000028                       # mshr miss rate for ReadReq accesses (Ratio)
system.cpu0.dcache.ReadReq.avgMshrMissLatency::cpu0.data 68223.542997                       # average ReadReq mshr miss latency ((Tick/Count))
system.cpu0.dcache.ReadReq.avgMshrMissLatency::total 68223.542997                       # average ReadReq mshr miss latency ((Tick/Count))
system.cpu0.dcache.WriteReq.hits::cpu0.data    139249746                       # number of WriteReq hits (Count)
system.cpu0.dcache.WriteReq.hits::total     139249746                       # number of WriteReq hits (Count)
system.cpu0.dcache.WriteReq.misses::cpu0.data         1980                       # number of WriteReq misses (Count)
system.cpu0.dcache.WriteReq.misses::total         1980                       # number of WriteReq misses (Count)
system.cpu0.dcache.WriteReq.missLatency::cpu0.data    118685479                       # number of WriteReq miss ticks (Tick)
system.cpu0.dcache.WriteReq.missLatency::total    118685479                       # number of WriteReq miss ticks (Tick)
system.cpu0.dcache.WriteReq.accesses::cpu0.data    139251726                       # number of WriteReq accesses(hits+misses) (Count)
system.cpu0.dcache.WriteReq.accesses::total    139251726                       # number of WriteReq accesses(hits+misses) (Count)
system.cpu0.dcache.WriteReq.missRate::cpu0.data     0.000014                       # miss rate for WriteReq accesses (Ratio)
system.cpu0.dcache.WriteReq.missRate::total     0.000014                       # miss rate for WriteReq accesses (Ratio)
system.cpu0.dcache.WriteReq.avgMissLatency::cpu0.data 59942.161111                       # average WriteReq miss latency ((Tick/Count))
system.cpu0.dcache.WriteReq.avgMissLatency::total 59942.161111                       # average WriteReq miss latency ((Tick/Count))
system.cpu0.dcache.WriteReq.mshrHits::cpu0.data           14                       # number of WriteReq MSHR hits (Count)
system.cpu0.dcache.WriteReq.mshrHits::total           14                       # number of WriteReq MSHR hits (Count)
system.cpu0.dcache.WriteReq.mshrMisses::cpu0.data         1966                       # number of WriteReq MSHR misses (Count)
system.cpu0.dcache.WriteReq.mshrMisses::total         1966                       # number of WriteReq MSHR misses (Count)
system.cpu0.dcache.WriteReq.mshrMissLatency::cpu0.data    116087979                       # number of WriteReq MSHR miss ticks (Tick)
system.cpu0.dcache.WriteReq.mshrMissLatency::total    116087979                       # number of WriteReq MSHR miss ticks (Tick)
system.cpu0.dcache.WriteReq.mshrMissRate::cpu0.data     0.000014                       # mshr miss rate for WriteReq accesses (Ratio)
system.cpu0.dcache.WriteReq.mshrMissRate::total     0.000014                       # mshr miss rate for WriteReq accesses (Ratio)
system.cpu0.dcache.WriteReq.avgMshrMissLatency::cpu0.data 59047.802136                       # average WriteReq mshr miss latency ((Tick/Count))
system.cpu0.dcache.WriteReq.avgMshrMissLatency::total 59047.802136                       # average WriteReq mshr miss latency ((Tick/Count))
system.cpu0.dcache.power_state.pwrStateResidencyTicks::UNDEFINED 295329251000                       # Cumulative time (in ticks) in various power states (Tick)
system.cpu0.dcache.tags.tagsInUse          511.952156                       # Average ticks per tags in use ((Tick/Count))
system.cpu0.dcache.tags.totalRefs           399147532                       # Total number of references to valid blocks. (Count)
system.cpu0.dcache.tags.sampledRefs              9325                       # Sample count of references to valid blocks. (Count)
system.cpu0.dcache.tags.avgRefs          42804.024879                       # Average number of references to valid blocks. ((Count/Count))
system.cpu0.dcache.tags.warmupTick             148000                       # The tick when the warmup percentage was hit. (Tick)
system.cpu0.dcache.tags.occupancies::cpu0.data   511.952156                       # Average occupied blocks per tick, per requestor ((Count/Tick))
system.cpu0.dcache.tags.avgOccs::cpu0.data     0.999907                       # Average percentage of cache occupancy ((Ratio/Tick))
system.cpu0.dcache.tags.avgOccs::total       0.999907                       # Average percentage of cache occupancy ((Ratio/Tick))
system.cpu0.dcache.tags.occupanciesTaskId::1024          512                       # Occupied blocks per task id (Count)
system.cpu0.dcache.tags.ageTaskId_1024::4          512                       # Occupied blocks per task id, per block age (Count)
system.cpu0.dcache.tags.ratioOccsTaskId::1024            1                       # Ratio of occupied blocks and all blocks, per task id (Ratio)
system.cpu0.dcache.tags.tagAccesses        3193310957                       # Number of tag accesses (Count)
system.cpu0.dcache.tags.dataAccesses       3193310957                       # Number of data accesses (Count)
system.cpu0.dcache.tags.power_state.pwrStateResidencyTicks::UNDEFINED 295329251000                       # Cumulative time (in ticks) in various power states (Tick)
system.cpu0.decode.idleCycles               153462861                       # Number of cycles decode is idle (Cycle)
system.cpu0.decode.blockedCycles             57259239                       # Number of cycles decode is blocked (Cycle)
system.cpu0.decode.runCycles                320963962                       # Number of cycles decode is running (Cycle)
system.cpu0.decode.unblockCycles             18048398                       # Number of cycles decode is unblocking (Cycle)
system.cpu0.decode.squashCycles               7151329                       # Number of cycles decode is squashing (Cycle)
system.cpu0.decode.branchResolved           106931529                       # Number of times decode resolved a branch (Count)
system.cpu0.decode.branchMispred               198198                       # Number of times decode detected a branch misprediction (Count)
system.cpu0.decode.decodedInsts            2149530535                       # Number of instructions handled by decode (Count)
system.cpu0.decode.squashedInsts              1090087                       # Number of squashed instructions handled by decode (Count)
system.cpu0.dtb_walker_cache.blockedCycles::no_mshrs            0                       # number of cycles access was blocked (Cycle)
system.cpu0.dtb_walker_cache.blockedCycles::no_targets            0                       # number of cycles access was blocked (Cycle)
system.cpu0.dtb_walker_cache.blockedCauses::no_mshrs            0                       # number of times access was blocked (Count)
system.cpu0.dtb_walker_cache.blockedCauses::no_targets            0                       # number of times access was blocked (Count)
system.cpu0.dtb_walker_cache.avgBlocked::no_mshrs          nan                       # average number of cycles each access was blocked ((Cycle/Count))
system.cpu0.dtb_walker_cache.avgBlocked::no_targets          nan                       # average number of cycles each access was blocked ((Cycle/Count))
system.cpu0.dtb_walker_cache.replacements            0                       # number of replacements (Count)
system.cpu0.dtb_walker_cache.power_state.pwrStateResidencyTicks::UNDEFINED 295329251000                       # Cumulative time (in ticks) in various power states (Tick)
system.cpu0.dtb_walker_cache.tags.tagsInUse            0                       # Average ticks per tags in use ((Tick/Count))
system.cpu0.dtb_walker_cache.tags.totalRefs            0                       # Total number of references to valid blocks. (Count)
system.cpu0.dtb_walker_cache.tags.sampledRefs            0                       # Sample count of references to valid blocks. (Count)
system.cpu0.dtb_walker_cache.tags.avgRefs          nan                       # Average number of references to valid blocks. ((Count/Count))
system.cpu0.dtb_walker_cache.tags.warmupTick            0                       # The tick when the warmup percentage was hit. (Tick)
system.cpu0.dtb_walker_cache.tags.tagAccesses            0                       # Number of tag accesses (Count)
system.cpu0.dtb_walker_cache.tags.dataAccesses            0                       # Number of data accesses (Count)
system.cpu0.dtb_walker_cache.tags.power_state.pwrStateResidencyTicks::UNDEFINED 295329251000                       # Cumulative time (in ticks) in various power states (Tick)
system.cpu0.fetch.icacheStallCycles         160682379                       # Number of cycles fetch is stalled on an Icache miss (Cycle)
system.cpu0.fetch.insts                    1185693338                       # Number of instructions fetch has processed (Count)
system.cpu0.fetch.branches                  206436336                       # Number of branches that fetch encountered (Count)
system.cpu0.fetch.predictedBranches         110515213                       # Number of branches that fetch has predicted taken (Count)
system.cpu0.fetch.cycles                    388849678                       # Number of cycles fetch has run and was not squashing or blocked (Cycle)
system.cpu0.fetch.squashCycles               14694508                       # Number of cycles fetch has spent squashing (Cycle)
system.cpu0.fetch.miscStallCycles                 674                       # Number of cycles fetch has spent waiting on interrupts, or bad addresses, or out of MSHRs (Cycle)
system.cpu0.fetch.pendingTrapStallCycles         5479                       # Number of stall cycles due to pending traps (Cycle)
system.cpu0.fetch.icacheWaitRetryStallCycles          325                       # Number of stall cycles due to full MSHR (Cycle)
system.cpu0.fetch.cacheLines                146092682                       # Number of cache lines fetched (Count)
system.cpu0.fetch.icacheSquashes              1972387                       # Number of outstanding Icache misses that were squashed (Count)
system.cpu0.fetch.nisnDist::samples         556885789                       # Number of instructions fetched each cycle (Total) (Count)
system.cpu0.fetch.nisnDist::mean             3.926280                       # Number of instructions fetched each cycle (Total) (Count)
system.cpu0.fetch.nisnDist::stdev            3.513140                       # Number of instructions fetched each cycle (Total) (Count)
system.cpu0.fetch.nisnDist::underflows              0      0.00%      0.00% # Number of instructions fetched each cycle (Total) (Count)
system.cpu0.fetch.nisnDist::0               198329016     35.61%     35.61% # Number of instructions fetched each cycle (Total) (Count)
system.cpu0.fetch.nisnDist::1                24809499      4.46%     40.07% # Number of instructions fetched each cycle (Total) (Count)
system.cpu0.fetch.nisnDist::2                25215254      4.53%     44.60% # Number of instructions fetched each cycle (Total) (Count)
system.cpu0.fetch.nisnDist::3                18060745      3.24%     47.84% # Number of instructions fetched each cycle (Total) (Count)
system.cpu0.fetch.nisnDist::4                31775977      5.71%     53.55% # Number of instructions fetched each cycle (Total) (Count)
system.cpu0.fetch.nisnDist::5                25331539      4.55%     58.09% # Number of instructions fetched each cycle (Total) (Count)
system.cpu0.fetch.nisnDist::6                23401691      4.20%     62.30% # Number of instructions fetched each cycle (Total) (Count)
system.cpu0.fetch.nisnDist::7                16800995      3.02%     65.31% # Number of instructions fetched each cycle (Total) (Count)
system.cpu0.fetch.nisnDist::8               193161073     34.69%    100.00% # Number of instructions fetched each cycle (Total) (Count)
system.cpu0.fetch.nisnDist::overflows               0      0.00%    100.00% # Number of instructions fetched each cycle (Total) (Count)
system.cpu0.fetch.nisnDist::min_value               0                       # Number of instructions fetched each cycle (Total) (Count)
system.cpu0.fetch.nisnDist::max_value               8                       # Number of instructions fetched each cycle (Total) (Count)
system.cpu0.fetch.nisnDist::total           556885789                       # Number of instructions fetched each cycle (Total) (Count)
system.cpu0.fetch.branchRate                 0.349502                       # Number of branch fetches per cycle (Ratio)
system.cpu0.fetch.rate                       2.007409                       # Number of inst fetches per cycle ((Count/Cycle))
system.cpu0.icache.demandHits::cpu0.inst    145572070                       # number of demand (read+write) hits (Count)
system.cpu0.icache.demandHits::total        145572070                       # number of demand (read+write) hits (Count)
system.cpu0.icache.overallHits::cpu0.inst    145572070                       # number of overall hits (Count)
system.cpu0.icache.overallHits::total       145572070                       # number of overall hits (Count)
system.cpu0.icache.demandMisses::cpu0.inst       520612                       # number of demand (read+write) misses (Count)
system.cpu0.icache.demandMisses::total         520612                       # number of demand (read+write) misses (Count)
system.cpu0.icache.overallMisses::cpu0.inst       520612                       # number of overall misses (Count)
system.cpu0.icache.overallMisses::total        520612                       # number of overall misses (Count)
system.cpu0.icache.demandMissLatency::cpu0.inst  31042488997                       # number of demand (read+write) miss ticks (Tick)
system.cpu0.icache.demandMissLatency::total  31042488997                       # number of demand (read+write) miss ticks (Tick)
system.cpu0.icache.overallMissLatency::cpu0.inst  31042488997                       # number of overall miss ticks (Tick)
system.cpu0.icache.overallMissLatency::total  31042488997                       # number of overall miss ticks (Tick)
system.cpu0.icache.demandAccesses::cpu0.inst    146092682                       # number of demand (read+write) accesses (Count)
system.cpu0.icache.demandAccesses::total    146092682                       # number of demand (read+write) accesses (Count)
system.cpu0.icache.overallAccesses::cpu0.inst    146092682                       # number of overall (read+write) accesses (Count)
system.cpu0.icache.overallAccesses::total    146092682                       # number of overall (read+write) accesses (Count)
system.cpu0.icache.demandMissRate::cpu0.inst     0.003564                       # miss rate for demand accesses (Ratio)
system.cpu0.icache.demandMissRate::total     0.003564                       # miss rate for demand accesses (Ratio)
system.cpu0.icache.overallMissRate::cpu0.inst     0.003564                       # miss rate for overall accesses (Ratio)
system.cpu0.icache.overallMissRate::total     0.003564                       # miss rate for overall accesses (Ratio)
system.cpu0.icache.demandAvgMissLatency::cpu0.inst 59626.917929                       # average overall miss latency in ticks ((Tick/Count))
system.cpu0.icache.demandAvgMissLatency::total 59626.917929                       # average overall miss latency in ticks ((Tick/Count))
system.cpu0.icache.overallAvgMissLatency::cpu0.inst 59626.917929                       # average overall miss latency ((Tick/Count))
system.cpu0.icache.overallAvgMissLatency::total 59626.917929                       # average overall miss latency ((Tick/Count))
system.cpu0.icache.blockedCycles::no_mshrs         6445                       # number of cycles access was blocked (Cycle)
system.cpu0.icache.blockedCycles::no_targets            0                       # number of cycles access was blocked (Cycle)
system.cpu0.icache.blockedCauses::no_mshrs          109                       # number of times access was blocked (Count)
system.cpu0.icache.blockedCauses::no_targets            0                       # number of times access was blocked (Count)
system.cpu0.icache.avgBlocked::no_mshrs     59.128440                       # average number of cycles each access was blocked ((Cycle/Count))
system.cpu0.icache.avgBlocked::no_targets          nan                       # average number of cycles each access was blocked ((Cycle/Count))
system.cpu0.icache.writebacks::writebacks       424336                       # number of writebacks (Count)
system.cpu0.icache.writebacks::total           424336                       # number of writebacks (Count)
system.cpu0.icache.demandMshrHits::cpu0.inst        95762                       # number of demand (read+write) MSHR hits (Count)
system.cpu0.icache.demandMshrHits::total        95762                       # number of demand (read+write) MSHR hits (Count)
system.cpu0.icache.overallMshrHits::cpu0.inst        95762                       # number of overall MSHR hits (Count)
system.cpu0.icache.overallMshrHits::total        95762                       # number of overall MSHR hits (Count)
system.cpu0.icache.demandMshrMisses::cpu0.inst       424850                       # number of demand (read+write) MSHR misses (Count)
system.cpu0.icache.demandMshrMisses::total       424850                       # number of demand (read+write) MSHR misses (Count)
system.cpu0.icache.overallMshrMisses::cpu0.inst       424850                       # number of overall MSHR misses (Count)
system.cpu0.icache.overallMshrMisses::total       424850                       # number of overall MSHR misses (Count)
system.cpu0.icache.demandMshrMissLatency::cpu0.inst  26037305499                       # number of demand (read+write) MSHR miss ticks (Tick)
system.cpu0.icache.demandMshrMissLatency::total  26037305499                       # number of demand (read+write) MSHR miss ticks (Tick)
system.cpu0.icache.overallMshrMissLatency::cpu0.inst  26037305499                       # number of overall MSHR miss ticks (Tick)
system.cpu0.icache.overallMshrMissLatency::total  26037305499                       # number of overall MSHR miss ticks (Tick)
system.cpu0.icache.demandMshrMissRate::cpu0.inst     0.002908                       # mshr miss ratio for demand accesses (Ratio)
system.cpu0.icache.demandMshrMissRate::total     0.002908                       # mshr miss ratio for demand accesses (Ratio)
system.cpu0.icache.overallMshrMissRate::cpu0.inst     0.002908                       # mshr miss ratio for overall accesses (Ratio)
system.cpu0.icache.overallMshrMissRate::total     0.002908                       # mshr miss ratio for overall accesses (Ratio)
system.cpu0.icache.demandAvgMshrMissLatency::cpu0.inst 61285.878543                       # average overall mshr miss latency ((Tick/Count))
system.cpu0.icache.demandAvgMshrMissLatency::total 61285.878543                       # average overall mshr miss latency ((Tick/Count))
system.cpu0.icache.overallAvgMshrMissLatency::cpu0.inst 61285.878543                       # average overall mshr miss latency ((Tick/Count))
system.cpu0.icache.overallAvgMshrMissLatency::total 61285.878543                       # average overall mshr miss latency ((Tick/Count))
system.cpu0.icache.replacements                424336                       # number of replacements (Count)
system.cpu0.icache.ReadReq.hits::cpu0.inst    145572070                       # number of ReadReq hits (Count)
system.cpu0.icache.ReadReq.hits::total      145572070                       # number of ReadReq hits (Count)
system.cpu0.icache.ReadReq.misses::cpu0.inst       520612                       # number of ReadReq misses (Count)
system.cpu0.icache.ReadReq.misses::total       520612                       # number of ReadReq misses (Count)
system.cpu0.icache.ReadReq.missLatency::cpu0.inst  31042488997                       # number of ReadReq miss ticks (Tick)
system.cpu0.icache.ReadReq.missLatency::total  31042488997                       # number of ReadReq miss ticks (Tick)
system.cpu0.icache.ReadReq.accesses::cpu0.inst    146092682                       # number of ReadReq accesses(hits+misses) (Count)
system.cpu0.icache.ReadReq.accesses::total    146092682                       # number of ReadReq accesses(hits+misses) (Count)
system.cpu0.icache.ReadReq.missRate::cpu0.inst     0.003564                       # miss rate for ReadReq accesses (Ratio)
system.cpu0.icache.ReadReq.missRate::total     0.003564                       # miss rate for ReadReq accesses (Ratio)
system.cpu0.icache.ReadReq.avgMissLatency::cpu0.inst 59626.917929                       # average ReadReq miss latency ((Tick/Count))
system.cpu0.icache.ReadReq.avgMissLatency::total 59626.917929                       # average ReadReq miss latency ((Tick/Count))
system.cpu0.icache.ReadReq.mshrHits::cpu0.inst        95762                       # number of ReadReq MSHR hits (Count)
system.cpu0.icache.ReadReq.mshrHits::total        95762                       # number of ReadReq MSHR hits (Count)
system.cpu0.icache.ReadReq.mshrMisses::cpu0.inst       424850                       # number of ReadReq MSHR misses (Count)
system.cpu0.icache.ReadReq.mshrMisses::total       424850                       # number of ReadReq MSHR misses (Count)
system.cpu0.icache.ReadReq.mshrMissLatency::cpu0.inst  26037305499                       # number of ReadReq MSHR miss ticks (Tick)
system.cpu0.icache.ReadReq.mshrMissLatency::total  26037305499                       # number of ReadReq MSHR miss ticks (Tick)
system.cpu0.icache.ReadReq.mshrMissRate::cpu0.inst     0.002908                       # mshr miss rate for ReadReq accesses (Ratio)
system.cpu0.icache.ReadReq.mshrMissRate::total     0.002908                       # mshr miss rate for ReadReq accesses (Ratio)
system.cpu0.icache.ReadReq.avgMshrMissLatency::cpu0.inst 61285.878543                       # average ReadReq mshr miss latency ((Tick/Count))
system.cpu0.icache.ReadReq.avgMshrMissLatency::total 61285.878543                       # average ReadReq mshr miss latency ((Tick/Count))
system.cpu0.icache.power_state.pwrStateResidencyTicks::UNDEFINED 295329251000                       # Cumulative time (in ticks) in various power states (Tick)
system.cpu0.icache.tags.tagsInUse          511.950730                       # Average ticks per tags in use ((Tick/Count))
system.cpu0.icache.tags.totalRefs           145996920                       # Total number of references to valid blocks. (Count)
system.cpu0.icache.tags.sampledRefs            424850                       # Sample count of references to valid blocks. (Count)
system.cpu0.icache.tags.avgRefs            343.643451                       # Average number of references to valid blocks. ((Count/Count))
system.cpu0.icache.tags.warmupTick              77000                       # The tick when the warmup percentage was hit. (Tick)
system.cpu0.icache.tags.occupancies::cpu0.inst   511.950730                       # Average occupied blocks per tick, per requestor ((Count/Tick))
system.cpu0.icache.tags.avgOccs::cpu0.inst     0.999904                       # Average percentage of cache occupancy ((Ratio/Tick))
system.cpu0.icache.tags.avgOccs::total       0.999904                       # Average percentage of cache occupancy ((Ratio/Tick))
system.cpu0.icache.tags.occupanciesTaskId::1024          512                       # Occupied blocks per task id (Count)
system.cpu0.icache.tags.ageTaskId_1024::0            5                       # Occupied blocks per task id, per block age (Count)
system.cpu0.icache.tags.ageTaskId_1024::1          133                       # Occupied blocks per task id, per block age (Count)
system.cpu0.icache.tags.ageTaskId_1024::2          374                       # Occupied blocks per task id, per block age (Count)
system.cpu0.icache.tags.ratioOccsTaskId::1024            1                       # Ratio of occupied blocks and all blocks, per task id (Ratio)
system.cpu0.icache.tags.tagAccesses        1169166306                       # Number of tag accesses (Count)
system.cpu0.icache.tags.dataAccesses       1169166306                       # Number of data accesses (Count)
system.cpu0.icache.tags.power_state.pwrStateResidencyTicks::UNDEFINED 295329251000                       # Cumulative time (in ticks) in various power states (Tick)
system.cpu0.iew.idleCycles                          0                       # Number of cycles IEW is idle (Cycle)
system.cpu0.iew.squashCycles                  7151329                       # Number of cycles IEW is squashing (Cycle)
system.cpu0.iew.blockCycles                  23937848                       # Number of cycles IEW is blocking (Cycle)
system.cpu0.iew.unblockCycles                   91404                       # Number of cycles IEW is unblocking (Cycle)
system.cpu0.iew.dispatchedInsts            2055666351                       # Number of instructions dispatched to IQ (Count)
system.cpu0.iew.dispSquashedInsts              427304                       # Number of squashed instructions skipped by dispatch (Count)
system.cpu0.iew.dispLoadInsts               291833422                       # Number of dispatched load instructions (Count)
system.cpu0.iew.dispStoreInsts              155385528                       # Number of dispatched store instructions (Count)
system.cpu0.iew.dispNonSpecInsts                35504                       # Number of dispatched non-speculative instructions (Count)
system.cpu0.iew.iqFullEvents                     2004                       # Number of times the IQ has become full, causing a stall (Count)
system.cpu0.iew.lsqFullEvents                   88145                       # Number of times the LSQ has become full, causing a stall (Count)
system.cpu0.iew.memOrderViolationEvents        184383                       # Number of memory order violations (Count)
system.cpu0.iew.predictedTakenIncorrect       3892058                       # Number of branches that were predicted taken incorrectly (Count)
system.cpu0.iew.predictedNotTakenIncorrect      4032564                       # Number of branches that were predicted not taken incorrectly (Count)
system.cpu0.iew.branchMispredicts             7924622                       # Number of branch mispredicts detected at execute (Count)
system.cpu0.iew.instsToCommit              1974706341                       # Cumulative count of insts sent to commit (Count)
system.cpu0.iew.writebackCount             1971063153                       # Cumulative count of insts written-back (Count)
system.cpu0.iew.producerInst               1445977276                       # Number of instructions producing a value (Count)
system.cpu0.iew.consumerInst               2108202272                       # Number of instructions consuming a value (Count)
system.cpu0.iew.wbRate                       3.337060                       # Insts written-back per cycle ((Count/Cycle))
system.cpu0.iew.wbFanout                     0.685882                       # Average fanout of values written-back ((Count/Count))
system.cpu0.interrupts.clk_domain.clock          8000                       # Clock period in ticks (Tick)
system.cpu0.itb_walker_cache.blockedCycles::no_mshrs            0                       # number of cycles access was blocked (Cycle)
system.cpu0.itb_walker_cache.blockedCycles::no_targets            0                       # number of cycles access was blocked (Cycle)
system.cpu0.itb_walker_cache.blockedCauses::no_mshrs            0                       # number of times access was blocked (Count)
system.cpu0.itb_walker_cache.blockedCauses::no_targets            0                       # number of times access was blocked (Count)
system.cpu0.itb_walker_cache.avgBlocked::no_mshrs          nan                       # average number of cycles each access was blocked ((Cycle/Count))
system.cpu0.itb_walker_cache.avgBlocked::no_targets          nan                       # average number of cycles each access was blocked ((Cycle/Count))
system.cpu0.itb_walker_cache.replacements            0                       # number of replacements (Count)
system.cpu0.itb_walker_cache.power_state.pwrStateResidencyTicks::UNDEFINED 295329251000                       # Cumulative time (in ticks) in various power states (Tick)
system.cpu0.itb_walker_cache.tags.tagsInUse            0                       # Average ticks per tags in use ((Tick/Count))
system.cpu0.itb_walker_cache.tags.totalRefs            0                       # Total number of references to valid blocks. (Count)
system.cpu0.itb_walker_cache.tags.sampledRefs            0                       # Sample count of references to valid blocks. (Count)
system.cpu0.itb_walker_cache.tags.avgRefs          nan                       # Average number of references to valid blocks. ((Count/Count))
system.cpu0.itb_walker_cache.tags.warmupTick            0                       # The tick when the warmup percentage was hit. (Tick)
system.cpu0.itb_walker_cache.tags.tagAccesses            0                       # Number of tag accesses (Count)
system.cpu0.itb_walker_cache.tags.dataAccesses            0                       # Number of data accesses (Count)
system.cpu0.itb_walker_cache.tags.power_state.pwrStateResidencyTicks::UNDEFINED 295329251000                       # Cumulative time (in ticks) in various power states (Tick)
system.cpu0.lsq0.forwLoads                   22240827                       # Number of loads that had data forwarded from stores (Count)
system.cpu0.lsq0.squashedLoads               34196777                       # Number of loads squashed (Count)
system.cpu0.lsq0.ignoredResponses               59523                       # Number of memory responses ignored because the instruction is squashed (Count)
system.cpu0.lsq0.memOrderViolation             184383                       # Number of memory ordering violations (Count)
system.cpu0.lsq0.squashedStores              16143952                       # Number of stores squashed (Count)
system.cpu0.lsq0.rescheduledLoads                 542                       # Number of loads that were rescheduled (Count)
system.cpu0.lsq0.blockedByCache                   441                       # Number of times an access to memory failed due to the cache being blocked (Count)
system.cpu0.lsq0.loadToUse::samples         257636639                       # Distribution of cycle latency between the first time a load is issued and its completion (Unspecified)
[...]
system.mem_ctrls.dram.perBankRdBursts::5        33720                       # Per bank write bursts (Count)
system.mem_ctrls.dram.perBankRdBursts::6        49734                       # Per bank write bursts (Count)
system.mem_ctrls.dram.perBankRdBursts::7        35915                       # Per bank write bursts (Count)
system.mem_ctrls.dram.perBankRdBursts::8        32641                       # Per bank write bursts (Count)
system.mem_ctrls.dram.perBankRdBursts::9        29456                       # Per bank write bursts (Count)
system.mem_ctrls.dram.perBankRdBursts::10        15145                       # Per bank write bursts (Count)
system.mem_ctrls.dram.perBankRdBursts::11        22533                       # Per bank write bursts (Count)
system.mem_ctrls.dram.perBankRdBursts::12        33254                       # Per bank write bursts (Count)
system.mem_ctrls.dram.perBankRdBursts::13        10291                       # Per bank write bursts (Count)
system.mem_ctrls.dram.perBankRdBursts::14         3144                       # Per bank write bursts (Count)
system.mem_ctrls.dram.perBankRdBursts::15          689                       # Per bank write bursts (Count)
system.mem_ctrls.dram.perBankWrBursts::0        24986                       # Per bank write bursts (Count)
system.mem_ctrls.dram.perBankWrBursts::1        27297                       # Per bank write bursts (Count)
system.mem_ctrls.dram.perBankWrBursts::2        33498                       # Per bank write bursts (Count)
system.mem_ctrls.dram.perBankWrBursts::3        41303                       # Per bank write bursts (Count)
system.mem_ctrls.dram.perBankWrBursts::4        36321                       # Per bank write bursts (Count)
system.mem_ctrls.dram.perBankWrBursts::5        33334                       # Per bank write bursts (Count)
system.mem_ctrls.dram.perBankWrBursts::6        49456                       # Per bank write bursts (Count)
system.mem_ctrls.dram.perBankWrBursts::7        35816                       # Per bank write bursts (Count)
system.mem_ctrls.dram.perBankWrBursts::8        32613                       # Per bank write bursts (Count)
system.mem_ctrls.dram.perBankWrBursts::9        29237                       # Per bank write bursts (Count)
system.mem_ctrls.dram.perBankWrBursts::10        14616                       # Per bank write bursts (Count)
system.mem_ctrls.dram.perBankWrBursts::11        21770                       # Per bank write bursts (Count)
system.mem_ctrls.dram.perBankWrBursts::12        32874                       # Per bank write bursts (Count)
system.mem_ctrls.dram.perBankWrBursts::13        10342                       # Per bank write bursts (Count)
system.mem_ctrls.dram.perBankWrBursts::14         2717                       # Per bank write bursts (Count)
system.mem_ctrls.dram.perBankWrBursts::15          236                       # Per bank write bursts (Count)
system.mem_ctrls.dram.totQLat              4072248250                       # Total ticks spent queuing (Tick)
system.mem_ctrls.dram.totBusLat            2158285000                       # Total ticks spent in databus transfers (Tick)
system.mem_ctrls.dram.totMemAccLat        12165817000                       # Total ticks spent from burst creation until serviced by the DRAM (Tick)
system.mem_ctrls.dram.avgQLat                 9433.99                       # Average queueing delay per DRAM burst ((Tick/Count))
system.mem_ctrls.dram.avgBusLat               5000.00                       # Average bus latency per DRAM burst ((Tick/Count))
system.mem_ctrls.dram.avgMemAccLat           28183.99                       # Average memory access latency per DRAM burst ((Tick/Count))
system.mem_ctrls.dram.readRowHits              380097                       # Number of row buffer hits during reads (Count)
system.mem_ctrls.dram.writeRowHits             372987                       # Number of row buffer hits during writes (Count)
system.mem_ctrls.dram.readRowHitRate            88.06                       # Row buffer hit rate for reads (Ratio)
system.mem_ctrls.dram.writeRowHitRate           87.47                       # Row buffer hit rate for writes (Ratio)
system.mem_ctrls.dram.bytesPerActivate::samples       104988                       # Bytes accessed per row activation (Byte)
system.mem_ctrls.dram.bytesPerActivate::mean   523.074485                       # Bytes accessed per row activation (Byte)
system.mem_ctrls.dram.bytesPerActivate::gmean   353.789338                       # Bytes accessed per row activation (Byte)
system.mem_ctrls.dram.bytesPerActivate::stdev   377.251641                       # Bytes accessed per row activation (Byte)
system.mem_ctrls.dram.bytesPerActivate::0-127        15895     15.14%     15.14% # Bytes accessed per row activation (Byte)
system.mem_ctrls.dram.bytesPerActivate::128-255        18635     17.75%     32.89% # Bytes accessed per row activation (Byte)
system.mem_ctrls.dram.bytesPerActivate::256-383        12138     11.56%     44.45% # Bytes accessed per row activation (Byte)
system.mem_ctrls.dram.bytesPerActivate::384-511         8893      8.47%     52.92% # Bytes accessed per row activation (Byte)
system.mem_ctrls.dram.bytesPerActivate::512-639         6908      6.58%     59.50% # Bytes accessed per row activation (Byte)
system.mem_ctrls.dram.bytesPerActivate::640-767         5670      5.40%     64.90% # Bytes accessed per row activation (Byte)
system.mem_ctrls.dram.bytesPerActivate::768-895         4568      4.35%     69.25% # Bytes accessed per row activation (Byte)
system.mem_ctrls.dram.bytesPerActivate::896-1023         3991      3.80%     73.05% # Bytes accessed per row activation (Byte)
system.mem_ctrls.dram.bytesPerActivate::1024-1151        28290     26.95%    100.00% # Bytes accessed per row activation (Byte)
system.mem_ctrls.dram.bytesPerActivate::total       104988                       # Bytes accessed per row activation (Byte)
system.mem_ctrls.dram.bytesRead              27626048                       # Total bytes read (Byte)
system.mem_ctrls.dram.bytesWritten           27290624                       # Total bytes written (Byte)
system.mem_ctrls.dram.avgRdBW               93.543216                       # Average DRAM read bandwidth in MiBytes/s ((Byte/Second))
system.mem_ctrls.dram.avgWrBW               92.407453                       # Average DRAM write bandwidth in MiBytes/s ((Byte/Second))
system.mem_ctrls.dram.peakBW                 12800.00                       # Theoretical peak bandwidth in MiByte/s ((Byte/Second))
system.mem_ctrls.dram.busUtil                    1.45                       # Data bus utilization in percentage (Ratio)
system.mem_ctrls.dram.busUtilRead                0.73                       # Data bus utilization in percentage for reads (Ratio)
system.mem_ctrls.dram.busUtilWrite               0.72                       # Data bus utilization in percentage for writes (Ratio)
system.mem_ctrls.dram.pageHitRate               87.76                       # Row buffer hit rate, read and write combined (Ratio)
system.mem_ctrls.dram.power_state.pwrStateResidencyTicks::UNDEFINED 295329251000                       # Cumulative time (in ticks) in various power states (Tick)
system.mem_ctrls.dram.rank0.actEnergy       478208640                       # Energy for activate commands per rank (pJ) (Joule)
system.mem_ctrls.dram.rank0.preEnergy       254170125                       # Energy for precharge commands per rank (pJ) (Joule)
system.mem_ctrls.dram.rank0.readEnergy     2031358560                       # Energy for read commands per rank (pJ) (Joule)
system.mem_ctrls.dram.rank0.writeEnergy    1472097420                       # Energy for write commands per rank (pJ) (Joule)
system.mem_ctrls.dram.rank0.refreshEnergy 23312680560.000004                       # Energy for refresh commands per rank (pJ) (Joule)
system.mem_ctrls.dram.rank0.actBackEnergy  38376625410                       # Energy for active background per rank (pJ) (Joule)
system.mem_ctrls.dram.rank0.preBackEnergy  81089274240                       # Energy for precharge background per rank (pJ) (Joule)
system.mem_ctrls.dram.rank0.actPowerDownEnergy            0                       # Energy for active power-down per rank (pJ) (Joule)
system.mem_ctrls.dram.rank0.prePowerDownEnergy            0                       # Energy for precharge power-down per rank (pJ) (Joule)
system.mem_ctrls.dram.rank0.selfRefreshEnergy            0                       # Energy for self refresh per rank (pJ) (Joule)
system.mem_ctrls.dram.rank0.totalEnergy  147014414955                       # Total energy per rank (pJ) (Joule)
system.mem_ctrls.dram.rank0.averagePower   497.798354                       # Core power per rank (mW) (Watt)
system.mem_ctrls.dram.rank0.totalIdleTime            0                       # Total Idle time Per DRAM Rank (Tick)
system.mem_ctrls.dram.rank0.pwrStateTime::IDLE 210437029250                       # Time in different power states (Tick)
system.mem_ctrls.dram.rank0.pwrStateTime::REF   9861540000                       # Time in different power states (Tick)
system.mem_ctrls.dram.rank0.pwrStateTime::SREF            0                       # Time in different power states (Tick)
system.mem_ctrls.dram.rank0.pwrStateTime::PRE_PDN            0                       # Time in different power states (Tick)
system.mem_ctrls.dram.rank0.pwrStateTime::ACT  75030681750                       # Time in different power states (Tick)
system.mem_ctrls.dram.rank0.pwrStateTime::ACT_PDN            0                       # Time in different power states (Tick)
system.mem_ctrls.dram.rank1.actEnergy       271412820                       # Energy for activate commands per rank (pJ) (Joule)
system.mem_ctrls.dram.rank1.preEnergy       144259335                       # Energy for precharge commands per rank (pJ) (Joule)
system.mem_ctrls.dram.rank1.readEnergy     1050672420                       # Energy for read commands per rank (pJ) (Joule)
system.mem_ctrls.dram.rank1.writeEnergy     753794100                       # Energy for write commands per rank (pJ) (Joule)
system.mem_ctrls.dram.rank1.refreshEnergy 23312680560.000004                       # Energy for refresh commands per rank (pJ) (Joule)
system.mem_ctrls.dram.rank1.actBackEnergy  25836587220                       # Energy for active background per rank (pJ) (Joule)
system.mem_ctrls.dram.rank1.preBackEnergy  91649306400                       # Energy for precharge background per rank (pJ) (Joule)
system.mem_ctrls.dram.rank1.actPowerDownEnergy            0                       # Energy for active power-down per rank (pJ) (Joule)
system.mem_ctrls.dram.rank1.prePowerDownEnergy            0                       # Energy for precharge power-down per rank (pJ) (Joule)
system.mem_ctrls.dram.rank1.selfRefreshEnergy            0                       # Energy for self refresh per rank (pJ) (Joule)
system.mem_ctrls.dram.rank1.totalEnergy  143018712855                       # Total energy per rank (pJ) (Joule)
system.mem_ctrls.dram.rank1.averagePower   484.268701                       # Core power per rank (mW) (Watt)
system.mem_ctrls.dram.rank1.totalIdleTime            0                       # Total Idle time Per DRAM Rank (Tick)
system.mem_ctrls.dram.rank1.pwrStateTime::IDLE 238010040000                       # Time in different power states (Tick)
system.mem_ctrls.dram.rank1.pwrStateTime::REF   9861540000                       # Time in different power states (Tick)
system.mem_ctrls.dram.rank1.pwrStateTime::SREF            0                       # Time in different power states (Tick)
system.mem_ctrls.dram.rank1.pwrStateTime::PRE_PDN            0                       # Time in different power states (Tick)
system.mem_ctrls.dram.rank1.pwrStateTime::ACT  47457671000                       # Time in different power states (Tick)
system.mem_ctrls.dram.rank1.pwrStateTime::ACT_PDN            0                       # Time in different power states (Tick)
system.mem_ctrls.power_state.pwrStateResidencyTicks::UNDEFINED 295329251000                       # Cumulative time (in ticks) in various power states (Tick)
system.membus.transDist::ReadResp              432211                       # Transaction distribution (Count)
system.membus.transDist::WritebackDirty          2103                       # Transaction distribution (Count)
system.membus.transDist::WritebackClean        424336                       # Transaction distribution (Count)
system.membus.transDist::CleanEvict              6710                       # Transaction distribution (Count)
system.membus.transDist::UpgradeReq                 2                       # Transaction distribution (Count)
system.membus.transDist::ReadExReq               1964                       # Transaction distribution (Count)
system.membus.transDist::ReadExResp              1964                       # Transaction distribution (Count)
system.membus.transDist::ReadCleanReq          424850                       # Transaction distribution (Count)
system.membus.transDist::ReadSharedReq           7361                       # Transaction distribution (Count)
system.membus.pktCount_system.cpu0.icache.mem_side_port::system.mem_ctrls.port      1274032                       # Packet count per connected requestor and responder (Count)
system.membus.pktCount_system.cpu0.icache.mem_side_port::total      1274032                       # Packet count per connected requestor and responder (Count)
system.membus.pktCount_system.cpu0.dcache.mem_side_port::system.mem_ctrls.port        27465                       # Packet count per connected requestor and responder (Count)
system.membus.pktCount_system.cpu0.dcache.mem_side_port::total        27465                       # Packet count per connected requestor and responder (Count)
system.membus.pktCount::total                 1301497                       # Packet count per connected requestor and responder (Count)
system.membus.pktSize_system.cpu0.icache.mem_side_port::system.mem_ctrls.port     54347648                       # Cumulative packet size per connected requestor and responder (Byte)
system.membus.pktSize_system.cpu0.icache.mem_side_port::total     54347648                       # Cumulative packet size per connected requestor and responder (Byte)
system.membus.pktSize_system.cpu0.dcache.mem_side_port::system.mem_ctrls.port       731392                       # Cumulative packet size per connected requestor and responder (Byte)
system.membus.pktSize_system.cpu0.dcache.mem_side_port::total       731392                       # Cumulative packet size per connected requestor and responder (Byte)
system.membus.pktSize::total                 55079040                       # Cumulative packet size per connected requestor and responder (Byte)
system.membus.snoops                                4                       # Total snoops (Count)
system.membus.snoopTraffic                        256                       # Total snoop traffic (Byte)
system.membus.snoopFanout::samples             434177                       # Request fanout histogram (Count)
system.membus.snoopFanout::mean              0.000035                       # Request fanout histogram (Count)
system.membus.snoopFanout::stdev             0.005878                       # Request fanout histogram (Count)
system.membus.snoopFanout::underflows               0      0.00%      0.00% # Request fanout histogram (Count)
system.membus.snoopFanout::0                   434162    100.00%    100.00% # Request fanout histogram (Count)
system.membus.snoopFanout::1                       15      0.00%    100.00% # Request fanout histogram (Count)
system.membus.snoopFanout::2                        0      0.00%    100.00% # Request fanout histogram (Count)
system.membus.snoopFanout::3                        0      0.00%    100.00% # Request fanout histogram (Count)
system.membus.snoopFanout::4                        0      0.00%    100.00% # Request fanout histogram (Count)
system.membus.snoopFanout::5                        0      0.00%    100.00% # Request fanout histogram (Count)
system.membus.snoopFanout::6                        0      0.00%    100.00% # Request fanout histogram (Count)
system.membus.snoopFanout::7                        0      0.00%    100.00% # Request fanout histogram (Count)
system.membus.snoopFanout::8                        0      0.00%    100.00% # Request fanout histogram (Count)
system.membus.snoopFanout::9                        0      0.00%    100.00% # Request fanout histogram (Count)
system.membus.snoopFanout::10                       0      0.00%    100.00% # Request fanout histogram (Count)
system.membus.snoopFanout::11                       0      0.00%    100.00% # Request fanout histogram (Count)
system.membus.snoopFanout::12                       0      0.00%    100.00% # Request fanout histogram (Count)
system.membus.snoopFanout::13                       0      0.00%    100.00% # Request fanout histogram (Count)
system.membus.snoopFanout::14                       0      0.00%    100.00% # Request fanout histogram (Count)
system.membus.snoopFanout::15                       0      0.00%    100.00% # Request fanout histogram (Count)
system.membus.snoopFanout::16                       0      0.00%    100.00% # Request fanout histogram (Count)
system.membus.snoopFanout::overflows                0      0.00%    100.00% # Request fanout histogram (Count)
system.membus.snoopFanout::min_value                0                       # Request fanout histogram (Count)
system.membus.snoopFanout::max_value                1                       # Request fanout histogram (Count)
system.membus.snoopFanout::total               434177                       # Request fanout histogram (Count)
system.membus.power_state.pwrStateResidencyTicks::UNDEFINED 295329251000                       # Cumulative time (in ticks) in various power states (Tick)
system.membus.reqLayer8.occupancy          2607866500                       # Layer occupancy (ticks) (Tick)
system.membus.reqLayer8.utilization               0.0                       # Layer utilization (Ratio)
system.membus.respLayer1.occupancy         2242144000                       # Layer occupancy (ticks) (Tick)
system.membus.respLayer1.utilization              0.0                       # Layer utilization (Ratio)
system.membus.respLayer2.occupancy           50048750                       # Layer occupancy (ticks) (Tick)
system.membus.respLayer2.utilization              0.0                       # Layer utilization (Ratio)
system.membus.snoop_filter.totRequests         867326                       # Total number of requests made to the snoop filter. (Count)
system.membus.snoop_filter.hitSingleRequests       433150                       # Number of requests hitting in the snoop filter with a single holder of the requested data. (Count)
system.membus.snoop_filter.hitMultiRequests           14                       # Number of requests hitting in the snoop filter with multiple (>1) holders of the requested data. (Count)
system.membus.snoop_filter.totSnoops                0                       # Total number of snoops made to the snoop filter. (Count)
system.membus.snoop_filter.hitSingleSnoops            0                       # Number of snoops hitting in the snoop filter with a single holder of the requested data. (Count)
system.membus.snoop_filter.hitMultiSnoops            0                       # Number of snoops hitting in the snoop filter with multiple (>1) holders of the requested data. (Count)
system.voltage_domain.voltage                       1                       # Voltage in Volts (Volt)
system.workload.inst.arm                            0                       # number of arm instructions executed (Count)
system.workload.inst.quiesce                        0                       # number of quiesce instructions executed (Count)

---------- End Simulation Statistics   ----------
