
---------- Begin Simulation Statistics ----------
simSeconds                                   0.284409                       # Number of seconds simulated (Second)
simTicks                                 284408670000                       # Number of ticks simulated (Tick)
finalTick                                284408670000                       # Number of ticks from beginning of simulation (restored from checkpoints and never reset) (Tick)
simFreq                                  1000000000000                       # The number of ticks per simulated second ((Tick/Second))
hostSeconds                                   6620.83                       # Real time elapsed on the host (Second)
hostTickRate                                 42956673                       # The number of ticks simulated per host second (ticks/s) ((Tick/Second))
hostMemory                                    8782444                       # Number of bytes of host memory used (Byte)
simInsts                                   1000000002                       # Number of instructions simulated (Count)
simOps                                     2053629097                       # Number of ops (including micro ops) simulated (Count)
hostInstRate                                   151039                       # Simulator instruction rate (inst/s) ((Count/Second))
hostOpRate                                     310177                       # Simulator op (including micro ops) rate (op/s) ((Count/Second))
system.clk_domain.clock                          1000                       # Clock period in ticks (Tick)
system.cpu0.numCycles                       568817341                       # Number of cpu cycles simulated (Cycle)
system.cpu0.numWorkItemsStarted                     0                       # Number of work items this cpu started (Count)
system.cpu0.numWorkItemsCompleted                   0                       # Number of work items this cpu completed (Count)
system.cpu0.instsAdded                     2137479671                       # Number of instructions added to the IQ (excludes non-spec) (Count)
system.cpu0.nonSpecInstsAdded                    1009                       # Number of non-speculative instructions added to the IQ (Count)
system.cpu0.instsIssued                    2114979494                       # Number of instructions issued (Count)
system.cpu0.squashedInstsIssued                577705                       # Number of squashed instructions issued (Count)
system.cpu0.squashedInstsExamined            83851579                       # Number of squashed instructions iterated over during squash; mainly for profiling (Count)
system.cpu0.squashedOperandsExamined        132275182                       # Number of squashed operands that are examined and possibly removed from graph (Count)
system.cpu0.squashedNonSpecRemoved                793                       # Number of squashed non-spec instructions that were removed (Count)
system.cpu0.numIssuedDist::samples          568415139                       # Number of insts issued each cycle (Count)
system.cpu0.numIssuedDist::mean              3.720836                       # Number of insts issued each cycle (Count)
system.cpu0.numIssuedDist::stdev             2.335985                       # Number of insts issued each cycle (Count)
system.cpu0.numIssuedDist::underflows               0      0.00%      0.00% # Number of insts issued each cycle (Count)
system.cpu0.numIssuedDist::0                 66950065     11.78%     11.78% # Number of insts issued each cycle (Count)
system.cpu0.numIssuedDist::1                 57195156     10.06%     21.84% # Number of insts issued each cycle (Count)
system.cpu0.numIssuedDist::2                 67655417     11.90%     33.74% # Number of insts issued each cycle (Count)
system.cpu0.numIssuedDist::3                 74541835     13.11%     46.86% # Number of insts issued each cycle (Count)
system.cpu0.numIssuedDist::4                 62965569     11.08%     57.93% # Number of insts issued each cycle (Count)
system.cpu0.numIssuedDist::5                 77024590     13.55%     71.49% # Number of insts issued each cycle (Count)
system.cpu0.numIssuedDist::6                 94077784     16.55%     88.04% # Number of insts issued each cycle (Count)
system.cpu0.numIssuedDist::7                 46641715      8.21%     96.24% # Number of insts issued each cycle (Count)
system.cpu0.numIssuedDist::8                 21363008      3.76%    100.00% # Number of insts issued each cycle (Count)
system.cpu0.numIssuedDist::overflows                0      0.00%    100.00% # Number of insts issued each cycle (Count)
system.cpu0.numIssuedDist::min_value                0                       # Number of insts issued each cycle (Count)
system.cpu0.numIssuedDist::max_value                8                       # Number of insts issued each cycle (Count)
system.cpu0.numIssuedDist::total            568415139                       # Number of insts issued each cycle (Count)
system.cpu0.statFuBusy::No_OpClass                  0      0.00%      0.00% # attempts to use FU when none available (Count)
system.cpu0.statFuBusy::IntAlu               30525638     91.21%     91.21% # attempts to use FU when none available (Count)
system.cpu0.statFuBusy::IntMult                     0      0.00%     91.21% # attempts to use FU when none available (Count)
system.cpu0.statFuBusy::IntDiv                      0      0.00%     91.21% # attempts to use FU when none available (Count)
system.cpu0.statFuBusy::FloatAdd                    0      0.00%     91.21% # attempts to use FU when none available (Count)
system.cpu0.statFuBusy::FloatCmp                    0      0.00%     91.21% # attempts to use FU when none available (Count)
system.cpu0.statFuBusy::FloatCvt                    2      0.00%     91.21% # attempts to use FU when none available (Count)
system.cpu0.statFuBusy::FloatMult                   0      0.00%     91.21% # attempts to use FU when none available (Count)
system.cpu0.statFuBusy::FloatMultAcc                0      0.00%     91.21% # attempts to use FU when none available (Count)
system.cpu0.statFuBusy::FloatDiv                    0      0.00%     91.21% # attempts to use FU when none available (Count)
system.cpu0.statFuBusy::FloatMisc                   0      0.00%     91.21% # attempts to use FU when none available (Count)
system.cpu0.statFuBusy::FloatSqrt                   0      0.00%     91.21% # attempts to use FU when none available (Count)
system.cpu0.statFuBusy::SimdAdd                     0      0.00%     91.21% # attempts to use FU when none available (Count)
system.cpu0.statFuBusy::SimdAddAcc                  0      0.00%     91.21% # attempts to use FU when none available (Count)
system.cpu0.statFuBusy::SimdAlu                    25      0.00%     91.21% # attempts to use FU when none available (Count)
system.cpu0.statFuBusy::SimdCmp                     0      0.00%     91.21% # attempts to use FU when none available (Count)
system.cpu0.statFuBusy::SimdCvt                 47858      0.14%     91.35% # attempts to use FU when none available (Count)
system.cpu0.statFuBusy::SimdMisc                    2      0.00%     91.35% # attempts to use FU when none available (Count)
system.cpu0.statFuBusy::SimdMult                    0      0.00%     91.35% # attempts to use FU when none available (Count)
system.cpu0.statFuBusy::SimdMultAcc                 0      0.00%     91.35% # attempts to use FU when none available (Count)
system.cpu0.statFuBusy::SimdShift                   7      0.00%     91.35% # attempts to use FU when none available (Count)
system.cpu0.statFuBusy::SimdShiftAcc                0      0.00%     91.35% # attempts to use FU when none available (Count)
system.cpu0.statFuBusy::SimdDiv                     0      0.00%     91.35% # attempts to use FU when none available (Count)
system.cpu0.statFuBusy::SimdSqrt                    0      0.00%     91.35% # attempts to use FU when none available (Count)
system.cpu0.statFuBusy::SimdFloatAdd                0      0.00%     91.35% # attempts to use FU when none available (Count)
system.cpu0.statFuBusy::SimdFloatAlu                0      0.00%     91.35% # attempts to use FU when none available (Count)
system.cpu0.statFuBusy::SimdFloatCmp                0      0.00%     91.35% # attempts to use FU when none available (Count)
system.cpu0.statFuBusy::SimdFloatCvt                0      0.00%     91.35% # attempts to use FU when none available (Count)
system.cpu0.statFuBusy::SimdFloatDiv                0      0.00%     91.35% # attempts to use FU when none available (Count)
system.cpu0.statFuBusy::SimdFloatMisc               0      0.00%     91.35% # attempts to use FU when none available (Count)
system.cpu0.statFuBusy::SimdFloatMult               0      0.00%     91.35% # attempts to use FU when none available (Count)
system.cpu0.statFuBusy::SimdFloatMultAcc            0      0.00%     91.35% # attempts to use FU when none available (Count)
system.cpu0.statFuBusy::SimdFloatSqrt               0      0.00%     91.35% # attempts to use FU when none available (Count)
system.cpu0.statFuBusy::SimdReduceAdd               0      0.00%     91.35% # attempts to use FU when none available (Count)
system.cpu0.statFuBusy::SimdReduceAlu               0      0.00%     91.35% # attempts to use FU when none available (Count)
system.cpu0.statFuBusy::SimdReduceCmp               0      0.00%     91.35% # attempts to use FU when none available (Count)
system.cpu0.statFuBusy::SimdFloatReduceAdd            0      0.00%     91.35% # attempts to use FU when none available (Count)
system.cpu0.statFuBusy::SimdFloatReduceCmp            0      0.00%     91.35% # attempts to use FU when none available (Count)
system.cpu0.statFuBusy::SimdAes                     0      0.00%     91.35% # attempts to use FU when none available (Count)
system.cpu0.statFuBusy::SimdAesMix                  0      0.00%     91.35% # attempts to use FU when none available (Count)
system.cpu0.statFuBusy::SimdSha1Hash                0      0.00%     91.35% # attempts to use FU when none available (Count)
system.cpu0.statFuBusy::SimdSha1Hash2               0      0.00%     91.35% # attempts to use FU when none available (Count)
system.cpu0.statFuBusy::SimdSha256Hash              0      0.00%     91.35% # attempts to use FU when none available (Count)
system.cpu0.statFuBusy::SimdSha256Hash2             0      0.00%     91.35% # attempts to use FU when none available (Count)
system.cpu0.statFuBusy::SimdShaSigma2               0      0.00%     91.35% # attempts to use FU when none available (Count)
system.cpu0.statFuBusy::SimdShaSigma3               0      0.00%     91.35% # attempts to use FU when none available (Count)
system.cpu0.statFuBusy::SimdPredAlu                 0      0.00%     91.35% # attempts to use FU when none available (Count)
system.cpu0.statFuBusy::MemRead               1803988      5.39%     96.74% # attempts to use FU when none available (Count)
system.cpu0.statFuBusy::MemWrite               271165      0.81%     97.55% # attempts to use FU when none available (Count)
system.cpu0.statFuBusy::FloatMemRead           590813      1.77%     99.31% # attempts to use FU when none available (Count)
system.cpu0.statFuBusy::FloatMemWrite          229296      0.69%    100.00% # attempts to use FU when none available (Count)
system.cpu0.statFuBusy::IprAccess                   0      0.00%    100.00% # attempts to use FU when none available (Count)
system.cpu0.statFuBusy::InstPrefetch                0      0.00%    100.00% # attempts to use FU when none available (Count)
system.cpu0.statIssuedInstType_0::No_OpClass      5495881      0.26%      0.26% # Number of instructions issued per FU type, per thread (Count)
system.cpu0.statIssuedInstType_0::IntAlu   1647645788     77.90%     78.16% # Number of instructions issued per FU type, per thread (Count)
system.cpu0.statIssuedInstType_0::IntMult      1015136      0.05%     78.21% # Number of instructions issued per FU type, per thread (Count)
system.cpu0.statIssuedInstType_0::IntDiv     11061321      0.52%     78.73% # Number of instructions issued per FU type, per thread (Count)
system.cpu0.statIssuedInstType_0::FloatAdd      3309678      0.16%     78.89% # Number of instructions issued per FU type, per thread (Count)
system.cpu0.statIssuedInstType_0::FloatCmp            0      0.00%     78.89% # Number of instructions issued per FU type, per thread (Count)
system.cpu0.statIssuedInstType_0::FloatCvt          444      0.00%     78.89% # Number of instructions issued per FU type, per thread (Count)
system.cpu0.statIssuedInstType_0::FloatMult            0      0.00%     78.89% # Number of instructions issued per FU type, per thread (Count)
system.cpu0.statIssuedInstType_0::FloatMultAcc            0      0.00%     78.89% # Number of instructions issued per FU type, per thread (Count)
system.cpu0.statIssuedInstType_0::FloatDiv            0      0.00%     78.89% # Number of instructions issued per FU type, per thread (Count)
system.cpu0.statIssuedInstType_0::FloatMisc            0      0.00%     78.89% # Number of instructions issued per FU type, per thread (Count)
system.cpu0.statIssuedInstType_0::FloatSqrt            0      0.00%     78.89% # Number of instructions issued per FU type, per thread (Count)
system.cpu0.statIssuedInstType_0::SimdAdd       287550      0.01%     78.90% # Number of instructions issued per FU type, per thread (Count)
system.cpu0.statIssuedInstType_0::SimdAddAcc            0      0.00%     78.90% # Number of instructions issued per FU type, per thread (Count)
system.cpu0.statIssuedInstType_0::SimdAlu      2064609      0.10%     79.00% # Number of instructions issued per FU type, per thread (Count)
system.cpu0.statIssuedInstType_0::SimdCmp            0      0.00%     79.00% # Number of instructions issued per FU type, per thread (Count)
system.cpu0.statIssuedInstType_0::SimdCvt      2987609      0.14%     79.14% # Number of instructions issued per FU type, per thread (Count)
system.cpu0.statIssuedInstType_0::SimdMisc      4069718      0.19%     79.34% # Number of instructions issued per FU type, per thread (Count)
system.cpu0.statIssuedInstType_0::SimdMult            0      0.00%     79.34% # Number of instructions issued per FU type, per thread (Count)
system.cpu0.statIssuedInstType_0::SimdMultAcc            0      0.00%     79.34% # Number of instructions issued per FU type, per thread (Count)
system.cpu0.statIssuedInstType_0::SimdShift        65355      0.00%     79.34% # Number of instructions issued per FU type, per thread (Count)
system.cpu0.statIssuedInstType_0::SimdShiftAcc            0      0.00%     79.34% # Number of instructions issued per FU type, per thread (Count)
system.cpu0.statIssuedInstType_0::SimdDiv            0      0.00%     79.34% # Number of instructions issued per FU type, per thread (Count)
system.cpu0.statIssuedInstType_0::SimdSqrt            0      0.00%     79.34% # Number of instructions issued per FU type, per thread (Count)
system.cpu0.statIssuedInstType_0::SimdFloatAdd      2530392      0.12%     79.46% # Number of instructions issued per FU type, per thread (Count)
system.cpu0.statIssuedInstType_0::SimdFloatAlu            0      0.00%     79.46% # Number of instructions issued per FU type, per thread (Count)
system.cpu0.statIssuedInstType_0::SimdFloatCmp            0      0.00%     79.46% # Number of instructions issued per FU type, per thread (Count)
system.cpu0.statIssuedInstType_0::SimdFloatCvt      1087793      0.05%     79.51% # Number of instructions issued per FU type, per thread (Count)
system.cpu0.statIssuedInstType_0::SimdFloatDiv            0      0.00%     79.51% # Number of instructions issued per FU type, per thread (Count)
system.cpu0.statIssuedInstType_0::SimdFloatMisc            0      0.00%     79.51% # Number of instructions issued per FU type, per thread (Count)
system.cpu0.statIssuedInstType_0::SimdFloatMult      1515004      0.07%     79.58% # Number of instructions issued per FU type, per thread (Count)
system.cpu0.statIssuedInstType_0::SimdFloatMultAcc            0      0.00%     79.58% # Number of instructions issued per FU type, per thread (Count)
system.cpu0.statIssuedInstType_0::SimdFloatSqrt       503279      0.02%     79.61% # Number of instructions issued per FU type, per thread (Count)
system.cpu0.statIssuedInstType_0::SimdReduceAdd            0      0.00%     79.61% # Number of instructions issued per FU type, per thread (Count)
system.cpu0.statIssuedInstType_0::SimdReduceAlu            0      0.00%     79.61% # Number of instructions issued per FU type, per thread (Count)
system.cpu0.statIssuedInstType_0::SimdReduceCmp            0      0.00%     79.61% # Number of instructions issued per FU type, per thread (Count)
system.cpu0.statIssuedInstType_0::SimdFloatReduceAdd            0      0.00%     79.61% # Number of instructions issued per FU type, per thread (Count)
system.cpu0.statIssuedInstType_0::SimdFloatReduceCmp            0      0.00%     79.61% # Number of instructions issued per FU type, per thread (Count)
system.cpu0.statIssuedInstType_0::SimdAes            0      0.00%     79.61% # Number of instructions issued per FU type, per thread (Count)
system.cpu0.statIssuedInstType_0::SimdAesMix            0      0.00%     79.61% # Number of instructions issued per FU type, per thread (Count)
system.cpu0.statIssuedInstType_0::SimdSha1Hash            0      0.00%     79.61% # Number of instructions issued per FU type, per thread (Count)
system.cpu0.statIssuedInstType_0::SimdSha1Hash2            0      0.00%     79.61% # Number of instructions issued per FU type, per thread (Count)
system.cpu0.statIssuedInstType_0::SimdSha256Hash            0      0.00%     79.61% # Number of instructions issued per FU type, per thread (Count)
system.cpu0.statIssuedInstType_0::SimdSha256Hash2            0      0.00%     79.61% # Number of instructions issued per FU type, per thread (Count)
system.cpu0.statIssuedInstType_0::SimdShaSigma2            0      0.00%     79.61% # Number of instructions issued per FU type, per thread (Count)
system.cpu0.statIssuedInstType_0::SimdShaSigma3            0      0.00%     79.61% # Number of instructions issued per FU type, per thread (Count)
system.cpu0.statIssuedInstType_0::SimdPredAlu            0      0.00%     79.61% # Number of instructions issued per FU type, per thread (Count)
system.cpu0.statIssuedInstType_0::MemRead    268371953     12.69%     92.29% # Number of instructions issued per FU type, per thread (Count)
system.cpu0.statIssuedInstType_0::MemWrite    151555262      7.17%     99.46% # Number of instructions issued per FU type, per thread (Count)
system.cpu0.statIssuedInstType_0::FloatMemRead      8637980      0.41%     99.87% # Number of instructions issued per FU type, per thread (Count)
system.cpu0.statIssuedInstType_0::FloatMemWrite      2774742      0.13%    100.00% # Number of instructions issued per FU type, per thread (Count)
system.cpu0.statIssuedInstType_0::IprAccess            0      0.00%    100.00% # Number of instructions issued per FU type, per thread (Count)
system.cpu0.statIssuedInstType_0::InstPrefetch            0      0.00%    100.00% # Number of instructions issued per FU type, per thread (Count)
system.cpu0.statIssuedInstType_0::total    2114979494                       # Number of instructions issued per FU type, per thread (Count)
system.cpu0.issueRate                        3.718205                       # Inst issue rate ((Count/Cycle))
system.cpu0.fuBusy                           33468794                       # FU busy when requested (Count)
system.cpu0.fuBusyRate                       0.015825                       # FU busy rate (busy events/executed inst) ((Count/Count))
system.cpu0.intInstQueueReads              4771483504                       # Number of integer instruction queue reads (Count)
system.cpu0.intInstQueueWrites             2188918543                       # Number of integer instruction queue writes (Count)
system.cpu0.intInstQueueWakeupAccesses     2077831846                       # Number of integer instruction queue wakeup accesses (Count)
system.cpu0.fpInstQueueReads                 60937122                       # Number of floating instruction queue reads (Count)
system.cpu0.fpInstQueueWrites                32421707                       # Number of floating instruction queue writes (Count)
system.cpu0.fpInstQueueWakeupAccesses        29310360                       # Number of floating instruction queue wakeup accesses (Count)
system.cpu0.vecInstQueueReads                       0                       # Number of vector instruction queue reads (Count)
system.cpu0.vecInstQueueWrites                      0                       # Number of vector instruction queue writes (Count)
system.cpu0.vecInstQueueWakeupAccesses              0                       # Number of vector instruction queue wakeup accesses (Count)
system.cpu0.intAluAccesses                 2112063262                       # Number of integer alu accesses (Count)
system.cpu0.fpAluAccesses                    30889145                       # Number of floating point alu accesses (Count)
system.cpu0.vecAluAccesses                          0                       # Number of vector alu accesses (Count)
system.cpu0.numInsts                       2109075831                       # Number of executed instructions (Count)
system.cpu0.numLoadInsts                    276107443                       # Number of load instructions executed (Count)
system.cpu0.numSquashedInsts                  5903663                       # Number of squashed instructions skipped in execute (Count)
system.cpu0.numSwp                                  0                       # Number of swp insts executed (Count)
system.cpu0.numNop                                  0                       # Number of nop insts executed (Count)
system.cpu0.numRefs                         430014040                       # Number of memory reference insts executed (Count)
system.cpu0.numBranches                     256941310                       # Number of branches executed (Count)
system.cpu0.numStoreInsts                   153906597                       # Number of stores executed (Count)
system.cpu0.numRate                          3.707826                       # Inst execution rate ((Count/Cycle))
system.cpu0.timesIdled                           5759                       # Number of times that the entire CPU went into an idle state and unscheduled itself (Count)
system.cpu0.idleCycles                         402202                       # Total number of cycles that the CPU has spent unscheduled due to idling (Cycle)
system.cpu0.committedInsts                 1000000002                       # Number of Instructions Simulated (Count)
system.cpu0.committedOps                   2053629097                       # Number of Ops (including micro ops) Simulated (Count)
system.cpu0.cpi                              0.568817                       # CPI: Cycles Per Instruction ((Cycle/Count))
system.cpu0.totalCpi                         0.568817                       # CPI: Total CPI of All Threads ((Cycle/Count))
system.cpu0.ipc                              1.758034                       # IPC: Instructions Per Cycle ((Count/Cycle))
system.cpu0.totalIpc                         1.758034                       # IPC: Total IPC of All Threads ((Count/Cycle))
system.cpu0.intRegfileReads                2609653158                       # Number of integer regfile reads (Count)
system.cpu0.intRegfileWrites               1513018070                       # Number of integer regfile writes (Count)
system.cpu0.fpRegfileReads                   38051165                       # Number of floating regfile reads (Count)
system.cpu0.fpRegfileWrites                  22763243                       # Number of floating regfile writes (Count)
system.cpu0.ccRegfileReads                 1363591120                       # number of cc regfile reads (Count)
system.cpu0.ccRegfileWrites                 634083632                       # number of cc regfile writes (Count)
system.cpu0.miscRegfileReads                943217279                       # number of misc regfile reads (Count)
system.cpu0.miscRegfileWrites                     216                       # number of misc regfile writes (Count)
system.cpu0.MemDepUnit__0.insertedLoads     277756682                       # Number of loads inserted to the mem dependence unit. (Count)
system.cpu0.MemDepUnit__0.insertedStores    155883948                       # Number of stores inserted to the mem dependence unit. (Count)
system.cpu0.MemDepUnit__0.conflictingLoads     31127756                       # Number of conflicting loads. (Count)
system.cpu0.MemDepUnit__0.conflictingStores     21744779                       # Number of conflicting stores. (Count)
system.cpu0.MemDepUnit__1.insertedLoads             0                       # Number of loads inserted to the mem dependence unit. (Count)
system.cpu0.MemDepUnit__1.insertedStores            0                       # Number of stores inserted to the mem dependence unit. (Count)
system.cpu0.MemDepUnit__1.conflictingLoads            0                       # Number of conflicting loads. (Count)
system.cpu0.MemDepUnit__1.conflictingStores            0                       # Number of conflicting stores. (Count)
system.cpu0.MemDepUnit__2.insertedLoads             0                       # Number of loads inserted to the mem dependence unit. (Count)
system.cpu0.MemDepUnit__2.insertedStores            0                       # Number of stores inserted to the mem dependence unit. (Count)
system.cpu0.MemDepUnit__2.conflictingLoads            0                       # Number of conflicting loads. (Count)
system.cpu0.MemDepUnit__2.conflictingStores            0                       # Number of conflicting stores. (Count)
system.cpu0.MemDepUnit__3.insertedLoads             0                       # Number of loads inserted to the mem dependence unit. (Count)
system.cpu0.MemDepUnit__3.insertedStores            0                       # Number of stores inserted to the mem dependence unit. (Count)
system.cpu0.MemDepUnit__3.conflictingLoads            0                       # Number of conflicting loads. (Count)
system.cpu0.MemDepUnit__3.conflictingStores            0                       # Number of conflicting stores. (Count)
system.cpu0.branchPred.lookups              268156386                       # Number of BP lookups (Count)
system.cpu0.branchPred.condPredicted        209593976                       # Number of conditional branches predicted (Count)
system.cpu0.branchPred.condIncorrect          3407907                       # Number of conditional branches incorrect (Count)
system.cpu0.branchPred.BTBLookups           107883668                       # Number of BTB lookups (Count)
system.cpu0.branchPred.BTBHits              106810190                       # Number of BTB hits (Count)
system.cpu0.branchPred.BTBHitRatio           0.990050                       # BTB Hit Ratio (Ratio)
system.cpu0.branchPred.RASUsed               15459373                       # Number of times the RAS was used to get a target. (Count)
system.cpu0.branchPred.RASIncorrect                35                       # Number of incorrect RAS predictions. (Count)
system.cpu0.branchPred.indirectLookups        8593664                       # Number of indirect predictor lookups. (Count)
system.cpu0.branchPred.indirectHits           8588459                       # Number of indirect target hits. (Count)
system.cpu0.branchPred.indirectMisses            5205                       # Number of indirect misses. (Count)
system.cpu0.branchPred.indirectMispredicted          890                       # Number of mispredicted indirect branches. (Count)
system.cpu0.commit.commitSquashedInsts       83664001                       # The number of squashed insts skipped by commit (Count)
system.cpu0.commit.commitNonSpecStalls            216                       # The number of times commit has been forced to stall to communicate backwards (Count)
system.cpu0.commit.branchMispredicts          2457957                       # The number of times a branch was mispredicted (Count)
system.cpu0.commit.numCommittedDist::samples    556822139                       # Number of insts commited each cycle (Count)
system.cpu0.commit.numCommittedDist::mean     3.688124                       # Number of insts commited each cycle (Count)
system.cpu0.commit.numCommittedDist::stdev     2.935964                       # Number of insts commited each cycle (Count)
system.cpu0.commit.numCommittedDist::underflows            0      0.00%      0.00% # Number of insts commited each cycle (Count)
system.cpu0.commit.numCommittedDist::0       78997815     14.19%     14.19% # Number of insts commited each cycle (Count)
system.cpu0.commit.numCommittedDist::1      104099247     18.70%     32.88% # Number of insts commited each cycle (Count)
system.cpu0.commit.numCommittedDist::2       52485584      9.43%     42.31% # Number of insts commited each cycle (Count)
system.cpu0.commit.numCommittedDist::3       83822854     15.05%     57.36% # Number of insts commited each cycle (Count)
system.cpu0.commit.numCommittedDist::4       38146187      6.85%     64.21% # Number of insts commited each cycle (Count)
system.cpu0.commit.numCommittedDist::5       34595358      6.21%     70.43% # Number of insts commited each cycle (Count)
system.cpu0.commit.numCommittedDist::6       19493323      3.50%     73.93% # Number of insts commited each cycle (Count)
system.cpu0.commit.numCommittedDist::7       10885524      1.95%     75.88% # Number of insts commited each cycle (Count)
system.cpu0.commit.numCommittedDist::8      134296247     24.12%    100.00% # Number of insts commited each cycle (Count)
system.cpu0.commit.numCommittedDist::overflows            0      0.00%    100.00% # Number of insts commited each cycle (Count)
system.cpu0.commit.numCommittedDist::min_value            0                       # Number of insts commited each cycle (Count)
system.cpu0.commit.numCommittedDist::max_value            8                       # Number of insts commited each cycle (Count)
system.cpu0.commit.numCommittedDist::total    556822139                       # Number of insts commited each cycle (Count)
system.cpu0.commit.instsCommitted          1000000002                       # Number of instructions committed (Count)
system.cpu0.commit.opsCommitted            2053629097                       # Number of ops (including micro ops) committed (Count)
system.cpu0.commit.memRefs                  421009559                       # Number of memory references committed (Count)
system.cpu0.commit.loads                    269877070                       # Number of loads committed (Count)
system.cpu0.commit.amos                             0                       # Number of atomic instructions committed (Count)
system.cpu0.commit.membars                          0                       # Number of memory barriers committed (Count)
system.cpu0.commit.branches                 252022250                       # Number of branches committed (Count)
system.cpu0.commit.vectorInstructions               0                       # Number of committed Vector instructions. (Count)
system.cpu0.commit.floating                  28621585                       # Number of committed floating point instructions. (Count)
system.cpu0.commit.integer                 2027942889                       # Number of committed integer instructions. (Count)
system.cpu0.commit.functionCalls             14550267                       # Number of function calls committed. (Count)
system.cpu0.commit.committedInstType_0::No_OpClass      5248449      0.26%      0.26% # Class of committed instruction (Count)
system.cpu0.commit.committedInstType_0::IntAlu   1597849885     77.81%     78.06% # Class of committed instruction (Count)
system.cpu0.commit.committedInstType_0::IntMult      1011753      0.05%     78.11% # Class of committed instruction (Count)
system.cpu0.commit.committedInstType_0::IntDiv     10616267      0.52%     78.63% # Class of committed instruction (Count)
system.cpu0.commit.committedInstType_0::FloatAdd      2946155      0.14%     78.77% # Class of committed instruction (Count)
system.cpu0.commit.committedInstType_0::FloatCmp            0      0.00%     78.77% # Class of committed instruction (Count)
system.cpu0.commit.committedInstType_0::FloatCvt          384      0.00%     78.77% # Class of committed instruction (Count)
system.cpu0.commit.committedInstType_0::FloatMult            0      0.00%     78.77% # Class of committed instruction (Count)
system.cpu0.commit.committedInstType_0::FloatMultAcc            0      0.00%     78.77% # Class of committed instruction (Count)
system.cpu0.commit.committedInstType_0::FloatDiv            0      0.00%     78.77% # Class of committed instruction (Count)
system.cpu0.commit.committedInstType_0::FloatMisc            0      0.00%     78.77% # Class of committed instruction (Count)
system.cpu0.commit.committedInstType_0::FloatSqrt            0      0.00%     78.77% # Class of committed instruction (Count)
system.cpu0.commit.committedInstType_0::SimdAdd       287498      0.01%     78.79% # Class of committed instruction (Count)
system.cpu0.commit.committedInstType_0::SimdAddAcc            0      0.00%     78.79% # Class of committed instruction (Count)
system.cpu0.commit.committedInstType_0::SimdAlu      2016987      0.10%     78.88% # Class of committed instruction (Count)
system.cpu0.commit.committedInstType_0::SimdCmp            0      0.00%     78.88% # Class of committed instruction (Count)
system.cpu0.commit.committedInstType_0::SimdCvt      2980328      0.15%     79.03% # Class of committed instruction (Count)
system.cpu0.commit.committedInstType_0::SimdMisc      4062271      0.20%     79.23% # Class of committed instruction (Count)
system.cpu0.commit.committedInstType_0::SimdMult            0      0.00%     79.23% # Class of committed instruction (Count)
system.cpu0.commit.committedInstType_0::SimdMultAcc            0      0.00%     79.23% # Class of committed instruction (Count)
system.cpu0.commit.committedInstType_0::SimdShift        65276      0.00%     79.23% # Class of committed instruction (Count)
system.cpu0.commit.committedInstType_0::SimdShiftAcc            0      0.00%     79.23% # Class of committed instruction (Count)
system.cpu0.commit.committedInstType_0::SimdDiv            0      0.00%     79.23% # Class of committed instruction (Count)
system.cpu0.commit.committedInstType_0::SimdSqrt            0      0.00%     79.23% # Class of committed instruction (Count)
system.cpu0.commit.committedInstType_0::SimdFloatAdd      2515565      0.12%     79.35% # Class of committed instruction (Count)
system.cpu0.commit.committedInstType_0::SimdFloatAlu            0      0.00%     79.35% # Class of committed instruction (Count)
system.cpu0.commit.committedInstType_0::SimdFloatCmp            0      0.00%     79.35% # Class of committed instruction (Count)
system.cpu0.commit.committedInstType_0::SimdFloatCvt      1006268      0.05%     79.40% # Class of committed instruction (Count)
system.cpu0.commit.committedInstType_0::SimdFloatDiv            0      0.00%     79.40% # Class of committed instruction (Count)
system.cpu0.commit.committedInstType_0::SimdFloatMisc            0      0.00%     79.40% # Class of committed instruction (Count)
system.cpu0.commit.committedInstType_0::SimdFloatMult      1509339      0.07%     79.47% # Class of committed instruction (Count)
system.cpu0.commit.committedInstType_0::SimdFloatMultAcc            0      0.00%     79.47% # Class of committed instruction (Count)
system.cpu0.commit.committedInstType_0::SimdFloatSqrt       503113      0.02%     79.50% # Class of committed instruction (Count)
system.cpu0.commit.committedInstType_0::SimdReduceAdd            0      0.00%     79.50% # Class of committed instruction (Count)
system.cpu0.commit.committedInstType_0::SimdReduceAlu            0      0.00%     79.50% # Class of committed instruction (Count)
system.cpu0.commit.committedInstType_0::SimdReduceCmp            0      0.00%     79.50% # Class of committed instruction (Count)
system.cpu0.commit.committedInstType_0::SimdFloatReduceAdd            0      0.00%     79.50% # Class of committed instruction (Count)
system.cpu0.commit.committedInstType_0::SimdFloatReduceCmp            0      0.00%     79.50% # Class of committed instruction (Count)
system.cpu0.commit.committedInstType_0::SimdAes            0      0.00%     79.50% # Class of committed instruction (Count)
system.cpu0.commit.committedInstType_0::SimdAesMix            0      0.00%     79.50% # Class of committed instruction (Count)
system.cpu0.commit.committedInstType_0::SimdSha1Hash            0      0.00%     79.50% # Class of committed instruction (Count)
system.cpu0.commit.committedInstType_0::SimdSha1Hash2            0      0.00%     79.50% # Class of committed instruction (Count)
system.cpu0.commit.committedInstType_0::SimdSha256Hash            0      0.00%     79.50% # Class of committed instruction (Count)
system.cpu0.commit.committedInstType_0::SimdSha256Hash2            0      0.00%     79.50% # Class of committed instruction (Count)
system.cpu0.commit.committedInstType_0::SimdShaSigma2            0      0.00%     79.50% # Class of committed instruction (Count)
system.cpu0.commit.committedInstType_0::SimdShaSigma3            0      0.00%     79.50% # Class of committed instruction (Count)
system.cpu0.commit.committedInstType_0::SimdPredAlu            0      0.00%     79.50% # Class of committed instruction (Count)
system.cpu0.commit.committedInstType_0::MemRead    261959758     12.76%     92.26% # Class of committed instruction (Count)
system.cpu0.commit.committedInstType_0::MemWrite    148508273      7.23%     99.49% # Class of committed instruction (Count)
system.cpu0.commit.committedInstType_0::FloatMemRead      7917312      0.39%     99.87% # Class of committed instruction (Count)
system.cpu0.commit.committedInstType_0::FloatMemWrite      2624216      0.13%    100.00% # Class of committed instruction (Count)
system.cpu0.commit.committedInstType_0::IprAccess            0      0.00%    100.00% # Class of committed instruction (Count)
system.cpu0.commit.committedInstType_0::InstPrefetch            0      0.00%    100.00% # Class of committed instruction (Count)
system.cpu0.commit.committedInstType_0::total   2053629097                       # Class of committed instruction (Count)
system.cpu0.commit.commitEligibleSamples    134296247                       # number cycles where commit BW limit reached (Cycle)
system.cpu0.dcache.demandHits::cpu0.data    356785935                       # number of demand (read+write) hits (Count)
system.cpu0.dcache.demandHits::total        356785935                       # number of demand (read+write) hits (Count)
system.cpu0.dcache.overallHits::cpu0.data    356785935                       # number of overall hits (Count)
system.cpu0.dcache.overallHits::total       356785935                       # number of overall hits (Count)
system.cpu0.dcache.demandMisses::cpu0.data       627879                       # number of demand (read+write) misses (Count)
system.cpu0.dcache.demandMisses::total         627879                       # number of demand (read+write) misses (Count)
system.cpu0.dcache.overallMisses::cpu0.data       627879                       # number of overall misses (Count)
system.cpu0.dcache.overallMisses::total        627879                       # number of overall misses (Count)
system.cpu0.dcache.demandMissLatency::cpu0.data  37856978485                       # number of demand (read+write) miss ticks (Tick)
system.cpu0.dcache.demandMissLatency::total  37856978485                       # number of demand (read+write) miss ticks (Tick)
system.cpu0.dcache.overallMissLatency::cpu0.data  37856978485                       # number of overall miss ticks (Tick)
system.cpu0.dcache.overallMissLatency::total  37856978485                       # number of overall miss ticks (Tick)
system.cpu0.dcache.demandAccesses::cpu0.data    357413814                       # number of demand (read+write) accesses (Count)
system.cpu0.dcache.demandAccesses::total    357413814                       # number of demand (read+write) accesses (Count)
system.cpu0.dcache.overallAccesses::cpu0.data    357413814                       # number of overall (read+write) accesses (Count)
system.cpu0.dcache.overallAccesses::total    357413814                       # number of overall (read+write) accesses (Count)
system.cpu0.dcache.demandMissRate::cpu0.data     0.001757                       # miss rate for demand accesses (Ratio)
system.cpu0.dcache.demandMissRate::total     0.001757                       # miss rate for demand accesses (Ratio)
system.cpu0.dcache.overallMissRate::cpu0.data     0.001757                       # miss rate for overall accesses (Ratio)
system.cpu0.dcache.overallMissRate::total     0.001757                       # miss rate for overall accesses (Ratio)
system.cpu0.dcache.demandAvgMissLatency::cpu0.data 60293.429920                       # average overall miss latency in ticks ((Tick/Count))
system.cpu0.dcache.demandAvgMissLatency::total 60293.429920                       # average overall miss latency in ticks ((Tick/Count))
system.cpu0.dcache.overallAvgMissLatency::cpu0.data 60293.429920                       # average overall miss latency ((Tick/Count))
system.cpu0.dcache.overallAvgMissLatency::total 60293.429920                       # average overall miss latency ((Tick/Count))
system.cpu0.dcache.blockedCycles::no_mshrs        42416                       # number of cycles access was blocked (Cycle)
system.cpu0.dcache.blockedCycles::no_targets         1000                       # number of cycles access was blocked (Cycle)
system.cpu0.dcache.blockedCauses::no_mshrs          745                       # number of times access was blocked (Count)
system.cpu0.dcache.blockedCauses::no_targets           13                       # number of times access was blocked (Count)
system.cpu0.dcache.avgBlocked::no_mshrs     56.934228                       # average number of cycles each access was blocked ((Cycle/Count))
system.cpu0.dcache.avgBlocked::no_targets    76.923077                       # average number of cycles each access was blocked ((Cycle/Count))
system.cpu0.dcache.writebacks::writebacks       259143                       # number of writebacks (Count)
system.cpu0.dcache.writebacks::total           259143                       # number of writebacks (Count)
system.cpu0.dcache.demandMshrHits::cpu0.data       294962                       # number of demand (read+write) MSHR hits (Count)
system.cpu0.dcache.demandMshrHits::total       294962                       # number of demand (read+write) MSHR hits (Count)
system.cpu0.dcache.overallMshrHits::cpu0.data       294962                       # number of overall MSHR hits (Count)
system.cpu0.dcache.overallMshrHits::total       294962                       # number of overall MSHR hits (Count)
system.cpu0.dcache.demandMshrMisses::cpu0.data       332917                       # number of demand (read+write) MSHR misses (Count)
system.cpu0.dcache.demandMshrMisses::total       332917                       # number of demand (read+write) MSHR misses (Count)
system.cpu0.dcache.overallMshrMisses::cpu0.data       332917                       # number of overall MSHR misses (Count)
system.cpu0.dcache.overallMshrMisses::total       332917                       # number of overall MSHR misses (Count)
system.cpu0.dcache.demandMshrMissLatency::cpu0.data  19838679985                       # number of demand (read+write) MSHR miss ticks (Tick)
system.cpu0.dcache.demandMshrMissLatency::total  19838679985                       # number of demand (read+write) MSHR miss ticks (Tick)
system.cpu0.dcache.overallMshrMissLatency::cpu0.data  19838679985                       # number of overall MSHR miss ticks (Tick)
system.cpu0.dcache.overallMshrMissLatency::total  19838679985                       # number of overall MSHR miss ticks (Tick)
system.cpu0.dcache.demandMshrMissRate::cpu0.data     0.000931                       # mshr miss ratio for demand accesses (Ratio)
system.cpu0.dcache.demandMshrMissRate::total     0.000931                       # mshr miss ratio for demand accesses (Ratio)
system.cpu0.dcache.overallMshrMissRate::cpu0.data     0.000931                       # mshr miss ratio for overall accesses (Ratio)
system.cpu0.dcache.overallMshrMissRate::total     0.000931                       # mshr miss ratio for overall accesses (Ratio)
system.cpu0.dcache.demandAvgMshrMissLatency::cpu0.data 59590.468450                       # average overall mshr miss latency ((Tick/Count))
system.cpu0.dcache.demandAvgMshrMissLatency::total 59590.468450                       # average overall mshr miss latency ((Tick/Count))
system.cpu0.dcache.overallAvgMshrMissLatency::cpu0.data 59590.468450                       # average overall mshr miss latency ((Tick/Count))
system.cpu0.dcache.overallAvgMshrMissLatency::total 59590.468450                       # average overall mshr miss latency ((Tick/Count))
system.cpu0.dcache.replacements                332405                       # number of replacements (Count)
system.cpu0.dcache.ReadReq.hits::cpu0.data    205855712                       # number of ReadReq hits (Count)
system.cpu0.dcache.ReadReq.hits::total      205855712                       # number of ReadReq hits (Count)
system.cpu0.dcache.ReadReq.misses::cpu0.data       369343                       # number of ReadReq misses (Count)
system.cpu0.dcache.ReadReq.misses::total       369343                       # number of ReadReq misses (Count)
system.cpu0.dcache.ReadReq.missLatency::cpu0.data  22354808000                       # number of ReadReq miss ticks (Tick)
system.cpu0.dcache.ReadReq.missLatency::total  22354808000                       # number of ReadReq miss ticks (Tick)
system.cpu0.dcache.ReadReq.accesses::cpu0.data    206225055                       # number of ReadReq accesses(hits+misses) (Count)
system.cpu0.dcache.ReadReq.accesses::total    206225055                       # number of ReadReq accesses(hits+misses) (Count)
system.cpu0.dcache.ReadReq.missRate::cpu0.data     0.001791                       # miss rate for ReadReq accesses (Ratio)
system.cpu0.dcache.ReadReq.missRate::total     0.001791                       # miss rate for ReadReq accesses (Ratio)
system.cpu0.dcache.ReadReq.avgMissLatency::cpu0.data 60525.874323                       # average ReadReq miss latency ((Tick/Count))
system.cpu0.dcache.ReadReq.avgMissLatency::total 60525.874323                       # average ReadReq miss latency ((Tick/Count))
system.cpu0.dcache.ReadReq.mshrHits::cpu0.data       294663                       # number of ReadReq MSHR hits (Count)
system.cpu0.dcache.ReadReq.mshrHits::total       294663                       # number of ReadReq MSHR hits (Count)
system.cpu0.dcache.ReadReq.mshrMisses::cpu0.data        74680                       # number of ReadReq MSHR misses (Count)
system.cpu0.dcache.ReadReq.mshrMisses::total        74680                       # number of ReadReq MSHR misses (Count)
system.cpu0.dcache.ReadReq.mshrMissLatency::cpu0.data   4610756500                       # number of ReadReq MSHR miss ticks (Tick)
system.cpu0.dcache.ReadReq.mshrMissLatency::total   4610756500                       # number of ReadReq MSHR miss ticks (Tick)
system.cpu0.dcache.ReadReq.mshrMissRate::cpu0.data     0.000362                       # mshr miss rate for ReadReq accesses (Ratio)
system.cpu0.dcache.ReadReq.mshrMissRate::total     0.000362                       # mshr miss rate for ReadReq accesses (Ratio)
system.cpu0.dcache.ReadReq.avgMshrMissLatency::cpu0.data 61740.178093                       # average ReadReq mshr miss latency ((Tick/Count))
system.cpu0.dcache.ReadReq.avgMshrMissLatency::total 61740.178093                       # average ReadReq mshr miss latency ((Tick/Count))
system.cpu0.dcache.WriteReq.hits::cpu0.data    150930223                       # number of WriteReq hits (Count)
system.cpu0.dcache.WriteReq.hits::total     150930223                       # number of WriteReq hits (Count)
system.cpu0.dcache.WriteReq.misses::cpu0.data       258536                       # number of WriteReq misses (Count)
system.cpu0.dcache.WriteReq.misses::total       258536                       # number of WriteReq misses (Count)
system.cpu0.dcache.WriteReq.missLatency::cpu0.data  15502170485                       # number of WriteReq miss ticks (Tick)
system.cpu0.dcache.WriteReq.missLatency::total  15502170485                       # number of WriteReq miss ticks (Tick)
system.cpu0.dcache.WriteReq.accesses::cpu0.data    151188759                       # number of WriteReq accesses(hits+misses) (Count)
system.cpu0.dcache.WriteReq.accesses::total    151188759                       # number of WriteReq accesses(hits+misses) (Count)
system.cpu0.dcache.WriteReq.missRate::cpu0.data     0.001710                       # miss rate for WriteReq accesses (Ratio)
system.cpu0.dcache.WriteReq.missRate::total     0.001710                       # miss rate for WriteReq accesses (Ratio)
system.cpu0.dcache.WriteReq.avgMissLatency::cpu0.data 59961.361222                       # average WriteReq miss latency ((Tick/Count))
system.cpu0.dcache.WriteReq.avgMissLatency::total 59961.361222                       # average WriteReq miss latency ((Tick/Count))
system.cpu0.dcache.WriteReq.mshrHits::cpu0.data          299                       # number of WriteReq MSHR hits (Count)
system.cpu0.dcache.WriteReq.mshrHits::total          299                       # number of WriteReq MSHR hits (Count)
system.cpu0.dcache.WriteReq.mshrMisses::cpu0.data       258237                       # number of WriteReq MSHR misses (Count)
system.cpu0.dcache.WriteReq.mshrMisses::total       258237                       # number of WriteReq MSHR misses (Count)
system.cpu0.dcache.WriteReq.mshrMissLatency::cpu0.data  15227923485                       # number of WriteReq MSHR miss ticks (Tick)
system.cpu0.dcache.WriteReq.mshrMissLatency::total  15227923485                       # number of WriteReq MSHR miss ticks (Tick)
system.cpu0.dcache.WriteReq.mshrMissRate::cpu0.data     0.001708                       # mshr miss rate for WriteReq accesses (Ratio)
system.cpu0.dcache.WriteReq.mshrMissRate::total     0.001708                       # mshr miss rate for WriteReq accesses (Ratio)
system.cpu0.dcache.WriteReq.avgMshrMissLatency::cpu0.data 58968.790239                       # average WriteReq mshr miss latency ((Tick/Count))
system.cpu0.dcache.WriteReq.avgMshrMissLatency::total 58968.790239                       # average WriteReq mshr miss latency ((Tick/Count))
system.cpu0.dcache.power_state.pwrStateResidencyTicks::UNDEFINED 284408670000                       # Cumulative time (in ticks) in various power states (Tick)
system.cpu0.dcache.tags.tagsInUse          511.951388                       # Average ticks per tags in use ((Tick/Count))
system.cpu0.dcache.tags.totalRefs           357118852                       # Total number of references to valid blocks. (Count)
system.cpu0.dcache.tags.sampledRefs            332917                       # Sample count of references to valid blocks. (Count)
system.cpu0.dcache.tags.avgRefs           1072.696354                       # Average number of references to valid blocks. ((Count/Count))
system.cpu0.dcache.tags.warmupTick             148000                       # The tick when the warmup percentage was hit. (Tick)
system.cpu0.dcache.tags.occupancies::cpu0.data   511.951388                       # Average occupied blocks per tick, per requestor ((Count/Tick))
system.cpu0.dcache.tags.avgOccs::cpu0.data     0.999905                       # Average percentage of cache occupancy ((Ratio/Tick))
system.cpu0.dcache.tags.avgOccs::total       0.999905                       # Average percentage of cache occupancy ((Ratio/Tick))
system.cpu0.dcache.tags.occupanciesTaskId::1024          512                       # Occupied blocks per task id (Count)
system.cpu0.dcache.tags.ageTaskId_1024::0            4                       # Occupied blocks per task id, per block age (Count)
system.cpu0.dcache.tags.ageTaskId_1024::1           33                       # Occupied blocks per task id, per block age (Count)
system.cpu0.dcache.tags.ageTaskId_1024::2          293                       # Occupied blocks per task id, per block age (Count)
system.cpu0.dcache.tags.ageTaskId_1024::3           11                       # Occupied blocks per task id, per block age (Count)
system.cpu0.dcache.tags.ageTaskId_1024::4          171                       # Occupied blocks per task id, per block age (Count)
system.cpu0.dcache.tags.ratioOccsTaskId::1024            1                       # Ratio of occupied blocks and all blocks, per task id (Ratio)
system.cpu0.dcache.tags.tagAccesses        2859643429                       # Number of tag accesses (Count)
system.cpu0.dcache.tags.dataAccesses       2859643429                       # Number of data accesses (Count)
system.cpu0.dcache.tags.power_state.pwrStateResidencyTicks::UNDEFINED 284408670000                       # Cumulative time (in ticks) in various power states (Tick)
system.cpu0.decode.idleCycles               161935034                       # Number of cycles decode is idle (Cycle)
system.cpu0.decode.blockedCycles             51431346                       # Number of cycles decode is blocked (Cycle)
system.cpu0.decode.runCycles                346863053                       # Number of cycles decode is running (Cycle)
system.cpu0.decode.unblockCycles              5714368                       # Number of cycles decode is unblocking (Cycle)
system.cpu0.decode.squashCycles               2471338                       # Number of cycles decode is squashing (Cycle)
system.cpu0.decode.branchResolved           106190117                       # Number of times decode resolved a branch (Count)
system.cpu0.decode.branchMispred               960252                       # Number of times decode detected a branch misprediction (Count)
system.cpu0.decode.decodedInsts            2167690704                       # Number of instructions handled by decode (Count)
system.cpu0.decode.squashedInsts              4509017                       # Number of squashed instructions handled by decode (Count)
system.cpu0.dtb_walker_cache.blockedCycles::no_mshrs            0                       # number of cycles access was blocked (Cycle)
system.cpu0.dtb_walker_cache.blockedCycles::no_targets            0                       # number of cycles access was blocked (Cycle)
system.cpu0.dtb_walker_cache.blockedCauses::no_mshrs            0                       # number of times access was blocked (Count)
system.cpu0.dtb_walker_cache.blockedCauses::no_targets            0                       # number of times access was blocked (Count)
system.cpu0.dtb_walker_cache.avgBlocked::no_mshrs          nan                       # average number of cycles each access was blocked ((Cycle/Count))
system.cpu0.dtb_walker_cache.avgBlocked::no_targets          nan                       # average number of cycles each access was blocked ((Cycle/Count))
system.cpu0.dtb_walker_cache.replacements            0                       # number of replacements (Count)
system.cpu0.dtb_walker_cache.power_state.pwrStateResidencyTicks::UNDEFINED 284408670000                       # Cumulative time (in ticks) in various power states (Tick)
system.cpu0.dtb_walker_cache.tags.tagsInUse            0                       # Average ticks per tags in use ((Tick/Count))
system.cpu0.dtb_walker_cache.tags.totalRefs            0                       # Total number of references to valid blocks. (Count)
system.cpu0.dtb_walker_cache.tags.sampledRefs            0                       # Sample count of references to valid blocks. (Count)
system.cpu0.dtb_walker_cache.tags.avgRefs          nan                       # Average number of references to valid blocks. ((Count/Count))
system.cpu0.dtb_walker_cache.tags.warmupTick            0                       # The tick when the warmup percentage was hit. (Tick)
system.cpu0.dtb_walker_cache.tags.tagAccesses            0                       # Number of tag accesses (Count)
system.cpu0.dtb_walker_cache.tags.dataAccesses            0                       # Number of data accesses (Count)
system.cpu0.dtb_walker_cache.tags.power_state.pwrStateResidencyTicks::UNDEFINED 284408670000                       # Cumulative time (in ticks) in various power states (Tick)
system.cpu0.fetch.icacheStallCycles         162865638                       # Number of cycles fetch is stalled on an Icache miss (Cycle)
system.cpu0.fetch.insts                    1069606717                       # Number of instructions fetch has processed (Count)
system.cpu0.fetch.branches                  268156386                       # Number of branches that fetch encountered (Count)
system.cpu0.fetch.predictedBranches         130858022                       # Number of branches that fetch has predicted taken (Count)
system.cpu0.fetch.cycles                    402008589                       # Number of cycles fetch has run and was not squashing or blocked (Cycle)
system.cpu0.fetch.squashCycles                6850332                       # Number of cycles fetch has spent squashing (Cycle)
system.cpu0.fetch.miscStallCycles                3947                       # Number of cycles fetch has spent waiting on interrupts, or bad addresses, or out of MSHRs (Cycle)
system.cpu0.fetch.pendingTrapStallCycles       111784                       # Number of stall cycles due to pending traps (Cycle)
system.cpu0.fetch.icacheWaitRetryStallCycles           15                       # Number of stall cycles due to full MSHR (Cycle)
system.cpu0.fetch.cacheLines                161270667                       # Number of cache lines fetched (Count)
system.cpu0.fetch.icacheSquashes              1296623                       # Number of outstanding Icache misses that were squashed (Count)
system.cpu0.fetch.nisnDist::samples         568415139                       # Number of instructions fetched each cycle (Total) (Count)
system.cpu0.fetch.nisnDist::mean             3.847655                       # Number of instructions fetched each cycle (Total) (Count)
system.cpu0.fetch.nisnDist::stdev            3.493242                       # Number of instructions fetched each cycle (Total) (Count)
system.cpu0.fetch.nisnDist::underflows              0      0.00%      0.00% # Number of instructions fetched each cycle (Total) (Count)
system.cpu0.fetch.nisnDist::0               209071908     36.78%     36.78% # Number of instructions fetched each cycle (Total) (Count)
system.cpu0.fetch.nisnDist::1                12112948      2.13%     38.91% # Number of instructions fetched each cycle (Total) (Count)
system.cpu0.fetch.nisnDist::2                31618373      5.56%     44.48% # Number of instructions fetched each cycle (Total) (Count)
system.cpu0.fetch.nisnDist::3                36288526      6.38%     50.86% # Number of instructions fetched each cycle (Total) (Count)
system.cpu0.fetch.nisnDist::4                19774402      3.48%     54.34% # Number of instructions fetched each cycle (Total) (Count)
system.cpu0.fetch.nisnDist::5                37312524      6.56%     60.90% # Number of instructions fetched each cycle (Total) (Count)
system.cpu0.fetch.nisnDist::6                12149522      2.14%     63.04% # Number of instructions fetched each cycle (Total) (Count)
system.cpu0.fetch.nisnDist::7                16402598      2.89%     65.93% # Number of instructions fetched each cycle (Total) (Count)
system.cpu0.fetch.nisnDist::8               193684338     34.07%    100.00% # Number of instructions fetched each cycle (Total) (Count)
system.cpu0.fetch.nisnDist::overflows               0      0.00%    100.00% # Number of instructions fetched each cycle (Total) (Count)
system.cpu0.fetch.nisnDist::min_value               0                       # Number of instructions fetched each cycle (Total) (Count)
system.cpu0.fetch.nisnDist::max_value               8                       # Number of instructions fetched each cycle (Total) (Count)
system.cpu0.fetch.nisnDist::total           568415139                       # Number of instructions fetched each cycle (Total) (Count)
system.cpu0.fetch.branchRate                 0.471428                       # Number of branch fetches per cycle (Ratio)
system.cpu0.fetch.rate                       1.880405                       # Number of inst fetches per cycle ((Count/Cycle))
system.cpu0.icache.demandHits::cpu0.inst    161260855                       # number of demand (read+write) hits (Count)
system.cpu0.icache.demandHits::total        161260855                       # number of demand (read+write) hits (Count)
system.cpu0.icache.overallHits::cpu0.inst    161260855                       # number of overall hits (Count)
system.cpu0.icache.overallHits::total       161260855                       # number of overall hits (Count)
system.cpu0.icache.demandMisses::cpu0.inst         9812                       # number of demand (read+write) misses (Count)
system.cpu0.icache.demandMisses::total           9812                       # number of demand (read+write) misses (Count)
system.cpu0.icache.overallMisses::cpu0.inst         9812                       # number of overall misses (Count)
system.cpu0.icache.overallMisses::total          9812                       # number of overall misses (Count)
system.cpu0.icache.demandMissLatency::cpu0.inst    510396000                       # number of demand (read+write) miss ticks (Tick)
system.cpu0.icache.demandMissLatency::total    510396000                       # number of demand (read+write) miss ticks (Tick)
system.cpu0.icache.overallMissLatency::cpu0.inst    510396000                       # number of overall miss ticks (Tick)
system.cpu0.icache.overallMissLatency::total    510396000                       # number of overall miss ticks (Tick)
system.cpu0.icache.demandAccesses::cpu0.inst    161270667                       # number of demand (read+write) accesses (Count)
system.cpu0.icache.demandAccesses::total    161270667                       # number of demand (read+write) accesses (Count)
system.cpu0.icache.overallAccesses::cpu0.inst    161270667                       # number of overall (read+write) accesses (Count)
system.cpu0.icache.overallAccesses::total    161270667                       # number of overall (read+write) accesses (Count)
system.cpu0.icache.demandMissRate::cpu0.inst     0.000061                       # miss rate for demand accesses (Ratio)
system.cpu0.icache.demandMissRate::total     0.000061                       # miss rate for demand accesses (Ratio)
system.cpu0.icache.overallMissRate::cpu0.inst     0.000061                       # miss rate for overall accesses (Ratio)
system.cpu0.icache.overallMissRate::total     0.000061                       # miss rate for overall accesses (Ratio)
system.cpu0.icache.demandAvgMissLatency::cpu0.inst 52017.529556                       # average overall miss latency in ticks ((Tick/Count))
system.cpu0.icache.demandAvgMissLatency::total 52017.529556                       # average overall miss latency in ticks ((Tick/Count))
system.cpu0.icache.overallAvgMissLatency::cpu0.inst 52017.529556                       # average overall miss latency ((Tick/Count))
system.cpu0.icache.overallAvgMissLatency::total 52017.529556                       # average overall miss latency ((Tick/Count))
system.cpu0.icache.blockedCycles::no_mshrs          152                       # number of cycles access was blocked (Cycle)
system.cpu0.icache.blockedCycles::no_targets            0                       # number of cycles access was blocked (Cycle)
system.cpu0.icache.blockedCauses::no_mshrs            2                       # number of times access was blocked (Count)
system.cpu0.icache.blockedCauses::no_targets            0                       # number of times access was blocked (Count)
system.cpu0.icache.avgBlocked::no_mshrs            76                       # average number of cycles each access was blocked ((Cycle/Count))
system.cpu0.icache.avgBlocked::no_targets          nan                       # average number of cycles each access was blocked ((Cycle/Count))
system.cpu0.icache.writebacks::writebacks         8033                       # number of writebacks (Count)
system.cpu0.icache.writebacks::total             8033                       # number of writebacks (Count)
system.cpu0.icache.demandMshrHits::cpu0.inst         1267                       # number of demand (read+write) MSHR hits (Count)
system.cpu0.icache.demandMshrHits::total         1267                       # number of demand (read+write) MSHR hits (Count)
system.cpu0.icache.overallMshrHits::cpu0.inst         1267                       # number of overall MSHR hits (Count)
system.cpu0.icache.overallMshrHits::total         1267                       # number of overall MSHR hits (Count)
system.cpu0.icache.demandMshrMisses::cpu0.inst         8545                       # number of demand (read+write) MSHR misses (Count)
system.cpu0.icache.demandMshrMisses::total         8545                       # number of demand (read+write) MSHR misses (Count)
system.cpu0.icache.overallMshrMisses::cpu0.inst         8545                       # number of overall MSHR misses (Count)
system.cpu0.icache.overallMshrMisses::total         8545                       # number of overall MSHR misses (Count)
system.cpu0.icache.demandMshrMissLatency::cpu0.inst    439001500                       # number of demand (read+write) MSHR miss ticks (Tick)
system.cpu0.icache.demandMshrMissLatency::total    439001500                       # number of demand (read+write) MSHR miss ticks (Tick)
system.cpu0.icache.overallMshrMissLatency::cpu0.inst    439001500                       # number of overall MSHR miss ticks (Tick)
system.cpu0.icache.overallMshrMissLatency::total    439001500                       # number of overall MSHR miss ticks (Tick)
system.cpu0.icache.demandMshrMissRate::cpu0.inst     0.000053                       # mshr miss ratio for demand accesses (Ratio)
system.cpu0.icache.demandMshrMissRate::total     0.000053                       # mshr miss ratio for demand accesses (Ratio)
system.cpu0.icache.overallMshrMissRate::cpu0.inst     0.000053                       # mshr miss ratio for overall accesses (Ratio)
system.cpu0.icache.overallMshrMissRate::total     0.000053                       # mshr miss ratio for overall accesses (Ratio)
system.cpu0.icache.demandAvgMshrMissLatency::cpu0.inst 51375.248683                       # average overall mshr miss latency ((Tick/Count))
system.cpu0.icache.demandAvgMshrMissLatency::total 51375.248683                       # average overall mshr miss latency ((Tick/Count))
system.cpu0.icache.overallAvgMshrMissLatency::cpu0.inst 51375.248683                       # average overall mshr miss latency ((Tick/Count))
system.cpu0.icache.overallAvgMshrMissLatency::total 51375.248683                       # average overall mshr miss latency ((Tick/Count))
system.cpu0.icache.replacements                  8033                       # number of replacements (Count)
system.cpu0.icache.ReadReq.hits::cpu0.inst    161260855                       # number of ReadReq hits (Count)
system.cpu0.icache.ReadReq.hits::total      161260855                       # number of ReadReq hits (Count)
system.cpu0.icache.ReadReq.misses::cpu0.inst         9812                       # number of ReadReq misses (Count)
system.cpu0.icache.ReadReq.misses::total         9812                       # number of ReadReq misses (Count)
system.cpu0.icache.ReadReq.missLatency::cpu0.inst    510396000                       # number of ReadReq miss ticks (Tick)
system.cpu0.icache.ReadReq.missLatency::total    510396000                       # number of ReadReq miss ticks (Tick)
system.cpu0.icache.ReadReq.accesses::cpu0.inst    161270667                       # number of ReadReq accesses(hits+misses) (Count)
system.cpu0.icache.ReadReq.accesses::total    161270667                       # number of ReadReq accesses(hits+misses) (Count)
system.cpu0.icache.ReadReq.missRate::cpu0.inst     0.000061                       # miss rate for ReadReq accesses (Ratio)
system.cpu0.icache.ReadReq.missRate::total     0.000061                       # miss rate for ReadReq accesses (Ratio)
system.cpu0.icache.ReadReq.avgMissLatency::cpu0.inst 52017.529556                       # average ReadReq miss latency ((Tick/Count))
system.cpu0.icache.ReadReq.avgMissLatency::total 52017.529556                       # average ReadReq miss latency ((Tick/Count))
system.cpu0.icache.ReadReq.mshrHits::cpu0.inst         1267                       # number of ReadReq MSHR hits (Count)
system.cpu0.icache.ReadReq.mshrHits::total         1267                       # number of ReadReq MSHR hits (Count)
system.cpu0.icache.ReadReq.mshrMisses::cpu0.inst         8545                       # number of ReadReq MSHR misses (Count)
system.cpu0.icache.ReadReq.mshrMisses::total         8545                       # number of ReadReq MSHR misses (Count)
system.cpu0.icache.ReadReq.mshrMissLatency::cpu0.inst    439001500                       # number of ReadReq MSHR miss ticks (Tick)
system.cpu0.icache.ReadReq.mshrMissLatency::total    439001500                       # number of ReadReq MSHR miss ticks (Tick)
system.cpu0.icache.ReadReq.mshrMissRate::cpu0.inst     0.000053                       # mshr miss rate for ReadReq accesses (Ratio)
system.cpu0.icache.ReadReq.mshrMissRate::total     0.000053                       # mshr miss rate for ReadReq accesses (Ratio)
system.cpu0.icache.ReadReq.avgMshrMissLatency::cpu0.inst 51375.248683                       # average ReadReq mshr miss latency ((Tick/Count))
system.cpu0.icache.ReadReq.avgMshrMissLatency::total 51375.248683                       # average ReadReq mshr miss latency ((Tick/Count))
system.cpu0.icache.power_state.pwrStateResidencyTicks::UNDEFINED 284408670000                       # Cumulative time (in ticks) in various power states (Tick)
system.cpu0.icache.tags.tagsInUse          511.962551                       # Average ticks per tags in use ((Tick/Count))
system.cpu0.icache.tags.totalRefs           161269400                       # Total number of references to valid blocks. (Count)
system.cpu0.icache.tags.sampledRefs              8545                       # Sample count of references to valid blocks. (Count)
system.cpu0.icache.tags.avgRefs          18872.954944                       # Average number of references to valid blocks. ((Count/Count))
system.cpu0.icache.tags.warmupTick              77000                       # The tick when the warmup percentage was hit. (Tick)
system.cpu0.icache.tags.occupancies::cpu0.inst   511.962551                       # Average occupied blocks per tick, per requestor ((Count/Tick))
system.cpu0.icache.tags.avgOccs::cpu0.inst     0.999927                       # Average percentage of cache occupancy ((Ratio/Tick))
system.cpu0.icache.tags.avgOccs::total       0.999927                       # Average percentage of cache occupancy ((Ratio/Tick))
system.cpu0.icache.tags.occupanciesTaskId::1024          512                       # Occupied blocks per task id (Count)
system.cpu0.icache.tags.ageTaskId_1024::3           37                       # Occupied blocks per task id, per block age (Count)
system.cpu0.icache.tags.ageTaskId_1024::4          475                       # Occupied blocks per task id, per block age (Count)
system.cpu0.icache.tags.ratioOccsTaskId::1024            1                       # Ratio of occupied blocks and all blocks, per task id (Ratio)
system.cpu0.icache.tags.tagAccesses        1290173881                       # Number of tag accesses (Count)
system.cpu0.icache.tags.dataAccesses       1290173881                       # Number of data accesses (Count)
system.cpu0.icache.tags.power_state.pwrStateResidencyTicks::UNDEFINED 284408670000                       # Cumulative time (in ticks) in various power states (Tick)
system.cpu0.iew.idleCycles                          0                       # Number of cycles IEW is idle (Cycle)
system.cpu0.iew.squashCycles                  2471338                       # Number of cycles IEW is squashing (Cycle)
system.cpu0.iew.blockCycles                  14042251                       # Number of cycles IEW is blocking (Cycle)
system.cpu0.iew.unblockCycles                  508815                       # Number of cycles IEW is unblocking (Cycle)
system.cpu0.iew.dispatchedInsts            2137480680                       # Number of instructions dispatched to IQ (Count)
system.cpu0.iew.dispSquashedInsts              173840                       # Number of squashed instructions skipped by dispatch (Count)
system.cpu0.iew.dispLoadInsts               277756682                       # Number of dispatched load instructions (Count)
system.cpu0.iew.dispStoreInsts              155883948                       # Number of dispatched store instructions (Count)
system.cpu0.iew.dispNonSpecInsts                  403                       # Number of dispatched non-speculative instructions (Count)
system.cpu0.iew.iqFullEvents                    67499                       # Number of times the IQ has become full, causing a stall (Count)
system.cpu0.iew.lsqFullEvents                  352439                       # Number of times the LSQ has become full, causing a stall (Count)
system.cpu0.iew.memOrderViolationEvents          8124                       # Number of memory order violations (Count)
system.cpu0.iew.predictedTakenIncorrect       1053638                       # Number of branches that were predicted taken incorrectly (Count)
system.cpu0.iew.predictedNotTakenIncorrect      1688306                       # Number of branches that were predicted not taken incorrectly (Count)
system.cpu0.iew.branchMispredicts             2741944                       # Number of branch mispredicts detected at execute (Count)
system.cpu0.iew.instsToCommit              2107947496                       # Cumulative count of insts sent to commit (Count)
system.cpu0.iew.writebackCount             2107142206                       # Cumulative count of insts written-back (Count)
system.cpu0.iew.producerInst               1514149480                       # Number of instructions producing a value (Count)
system.cpu0.iew.consumerInst               2459748967                       # Number of instructions consuming a value (Count)
system.cpu0.iew.wbRate                       3.704427                       # Insts written-back per cycle ((Count/Cycle))
system.cpu0.iew.wbFanout                     0.615571                       # Average fanout of values written-back ((Count/Count))
system.cpu0.interrupts.clk_domain.clock          8000                       # Clock period in ticks (Tick)
system.cpu0.itb_walker_cache.blockedCycles::no_mshrs            0                       # number of cycles access was blocked (Cycle)
system.cpu0.itb_walker_cache.blockedCycles::no_targets            0                       # number of cycles access was blocked (Cycle)
system.cpu0.itb_walker_cache.blockedCauses::no_mshrs            0                       # number of times access was blocked (Count)
system.cpu0.itb_walker_cache.blockedCauses::no_targets            0                       # number of times access was blocked (Count)
system.cpu0.itb_walker_cache.avgBlocked::no_mshrs          nan                       # average number of cycles each access was blocked ((Cycle/Count))
system.cpu0.itb_walker_cache.avgBlocked::no_targets          nan                       # average number of cycles each access was blocked ((Cycle/Count))
system.cpu0.itb_walker_cache.replacements            0                       # number of replacements (Count)
system.cpu0.itb_walker_cache.power_state.pwrStateResidencyTicks::UNDEFINED 284408670000                       # Cumulative time (in ticks) in various power states (Tick)
system.cpu0.itb_walker_cache.tags.tagsInUse            0                       # Average ticks per tags in use ((Tick/Count))
system.cpu0.itb_walker_cache.tags.totalRefs            0                       # Total number of references to valid blocks. (Count)
system.cpu0.itb_walker_cache.tags.sampledRefs            0                       # Sample count of references to valid blocks. (Count)
system.cpu0.itb_walker_cache.tags.avgRefs          nan                       # Average number of references to valid blocks. ((Count/Count))
system.cpu0.itb_walker_cache.tags.warmupTick            0                       # The tick when the warmup percentage was hit. (Tick)
system.cpu0.itb_walker_cache.tags.tagAccesses            0                       # Number of tag accesses (Count)
system.cpu0.itb_walker_cache.tags.dataAccesses            0                       # Number of data accesses (Count)
system.cpu0.itb_walker_cache.tags.power_state.pwrStateResidencyTicks::UNDEFINED 284408670000                       # Cumulative time (in ticks) in various power states (Tick)
system.cpu0.lsq0.forwLoads                   69587892                       # Number of loads that had data forwarded from stores (Count)
system.cpu0.lsq0.squashedLoads                7879611                       # Number of loads squashed (Count)
system.cpu0.lsq0.ignoredResponses               11551                       # Number of memory responses ignored because the instruction is squashed (Count)
system.cpu0.lsq0.memOrderViolation               8124                       # Number of memory ordering violations (Count)
system.cpu0.lsq0.squashedStores               4751459                       # Number of stores squashed (Count)
system.cpu0.lsq0.rescheduledLoads              268326                       # Number of loads that were rescheduled (Count)
system.cpu0.lsq0.blockedByCache                   703                       # Number of times an access to memory failed due to the cache being blocked (Count)
system.cpu0.lsq0.loadToUse::samples         269877070                       # Distribution of cycle latency between the first time a load is issued and its completion (Unspecified)
system.cpu0.lsq0.loadToUse::mean             3.098839                       # Distribution of cycle latency between the first time a load is issued and its completion (Unspecified)
system.cpu0.lsq0.loadToUse::stdev            5.105028                       # Distribution of cycle latency between the first time a load is issued and its completion (Unspecified)
system.cpu0.lsq0.loadToUse::0-9             269267859     99.77%     99.77% # Distribution of cycle latency between the first time a load is issued and its completion (Unspecified)
system.cpu0.lsq0.loadToUse::10-19              241359      0.09%     99.86% # Distribution of cycle latency between the first time a load is issued and its completion (Unspecified)
system.cpu0.lsq0.loadToUse::20-29                2197      0.00%     99.86% # Distribution of cycle latency between the first time a load is issued and its completion (Unspecified)
system.cpu0.lsq0.loadToUse::30-39                3352      0.00%     99.87% # Distribution of cycle latency between the first time a load is issued and its completion (Unspecified)
system.cpu0.lsq0.loadToUse::40-49               26526      0.01%     99.88% # Distribution of cycle latency between the first time a load is issued and its completion (Unspecified)
[...]
system.mem_ctrls.dram.perBankRdBursts::4        16775                       # Per bank write bursts (Count)
system.mem_ctrls.dram.perBankRdBursts::5        83993                       # Per bank write bursts (Count)
system.mem_ctrls.dram.perBankRdBursts::6        16174                       # Per bank write bursts (Count)
system.mem_ctrls.dram.perBankRdBursts::7        15826                       # Per bank write bursts (Count)
system.mem_ctrls.dram.perBankRdBursts::8        16506                       # Per bank write bursts (Count)
system.mem_ctrls.dram.perBankRdBursts::9        16246                       # Per bank write bursts (Count)
system.mem_ctrls.dram.perBankRdBursts::10        16477                       # Per bank write bursts (Count)
system.mem_ctrls.dram.perBankRdBursts::11        16195                       # Per bank write bursts (Count)
system.mem_ctrls.dram.perBankRdBursts::12        16986                       # Per bank write bursts (Count)
system.mem_ctrls.dram.perBankRdBursts::13        16353                       # Per bank write bursts (Count)
system.mem_ctrls.dram.perBankRdBursts::14        17325                       # Per bank write bursts (Count)
system.mem_ctrls.dram.perBankRdBursts::15        20682                       # Per bank write bursts (Count)
system.mem_ctrls.dram.perBankWrBursts::0        17386                       # Per bank write bursts (Count)
system.mem_ctrls.dram.perBankWrBursts::1        16905                       # Per bank write bursts (Count)
system.mem_ctrls.dram.perBankWrBursts::2        15944                       # Per bank write bursts (Count)
system.mem_ctrls.dram.perBankWrBursts::3        16546                       # Per bank write bursts (Count)
system.mem_ctrls.dram.perBankWrBursts::4        17524                       # Per bank write bursts (Count)
system.mem_ctrls.dram.perBankWrBursts::5        16491                       # Per bank write bursts (Count)
system.mem_ctrls.dram.perBankWrBursts::6        15948                       # Per bank write bursts (Count)
system.mem_ctrls.dram.perBankWrBursts::7        15666                       # Per bank write bursts (Count)
system.mem_ctrls.dram.perBankWrBursts::8        16094                       # Per bank write bursts (Count)
system.mem_ctrls.dram.perBankWrBursts::9        16041                       # Per bank write bursts (Count)
system.mem_ctrls.dram.perBankWrBursts::10        16760                       # Per bank write bursts (Count)
system.mem_ctrls.dram.perBankWrBursts::11        15907                       # Per bank write bursts (Count)
system.mem_ctrls.dram.perBankWrBursts::12        16836                       # Per bank write bursts (Count)
system.mem_ctrls.dram.perBankWrBursts::13        15923                       # Per bank write bursts (Count)
system.mem_ctrls.dram.perBankWrBursts::14        17037                       # Per bank write bursts (Count)
system.mem_ctrls.dram.perBankWrBursts::15        19885                       # Per bank write bursts (Count)
system.mem_ctrls.dram.totQLat              3217399250                       # Total ticks spent queuing (Tick)
system.mem_ctrls.dram.totBusLat            1687975000                       # Total ticks spent in databus transfers (Tick)
system.mem_ctrls.dram.totMemAccLat         9547305500                       # Total ticks spent from burst creation until serviced by the DRAM (Tick)
system.mem_ctrls.dram.avgQLat                 9530.35                       # Average queueing delay per DRAM burst ((Tick/Count))
system.mem_ctrls.dram.avgBusLat               5000.00                       # Average bus latency per DRAM burst ((Tick/Count))
system.mem_ctrls.dram.avgMemAccLat           28280.35                       # Average memory access latency per DRAM burst ((Tick/Count))
system.mem_ctrls.dram.readRowHits              278734                       # Number of row buffer hits during reads (Count)
system.mem_ctrls.dram.writeRowHits             232779                       # Number of row buffer hits during writes (Count)
system.mem_ctrls.dram.readRowHitRate            82.56                       # Row buffer hit rate for reads (Ratio)
system.mem_ctrls.dram.writeRowHitRate           87.22                       # Row buffer hit rate for writes (Ratio)
system.mem_ctrls.dram.bytesPerActivate::samples        92975                       # Bytes accessed per row activation (Byte)
system.mem_ctrls.dram.bytesPerActivate::mean   416.103598                       # Bytes accessed per row activation (Byte)
system.mem_ctrls.dram.bytesPerActivate::gmean   255.321636                       # Bytes accessed per row activation (Byte)
system.mem_ctrls.dram.bytesPerActivate::stdev   374.744306                       # Bytes accessed per row activation (Byte)
system.mem_ctrls.dram.bytesPerActivate::0-127        21146     22.74%     22.74% # Bytes accessed per row activation (Byte)
system.mem_ctrls.dram.bytesPerActivate::128-255        23596     25.38%     48.12% # Bytes accessed per row activation (Byte)
system.mem_ctrls.dram.bytesPerActivate::256-383        11655     12.54%     60.66% # Bytes accessed per row activation (Byte)
system.mem_ctrls.dram.bytesPerActivate::384-511         6031      6.49%     67.14% # Bytes accessed per row activation (Byte)
system.mem_ctrls.dram.bytesPerActivate::512-639         3256      3.50%     70.65% # Bytes accessed per row activation (Byte)
system.mem_ctrls.dram.bytesPerActivate::640-767         2660      2.86%     73.51% # Bytes accessed per row activation (Byte)
system.mem_ctrls.dram.bytesPerActivate::768-895         2577      2.77%     76.28% # Bytes accessed per row activation (Byte)
system.mem_ctrls.dram.bytesPerActivate::896-1023         2379      2.56%     78.84% # Bytes accessed per row activation (Byte)
system.mem_ctrls.dram.bytesPerActivate::1024-1151        19675     21.16%    100.00% # Bytes accessed per row activation (Byte)
system.mem_ctrls.dram.bytesPerActivate::total        92975                       # Bytes accessed per row activation (Byte)
system.mem_ctrls.dram.bytesRead              21606080                       # Total bytes read (Byte)
system.mem_ctrls.dram.bytesWritten           17081152                       # Total bytes written (Byte)
system.mem_ctrls.dram.avgRdBW               75.968430                       # Average DRAM read bandwidth in MiBytes/s ((Byte/Second))
system.mem_ctrls.dram.avgWrBW               60.058479                       # Average DRAM write bandwidth in MiBytes/s ((Byte/Second))
system.mem_ctrls.dram.peakBW                 12800.00                       # Theoretical peak bandwidth in MiByte/s ((Byte/Second))
system.mem_ctrls.dram.busUtil                    1.06                       # Data bus utilization in percentage (Ratio)
system.mem_ctrls.dram.busUtilRead                0.59                       # Data bus utilization in percentage for reads (Ratio)
system.mem_ctrls.dram.busUtilWrite               0.47                       # Data bus utilization in percentage for writes (Ratio)
system.mem_ctrls.dram.pageHitRate               84.62                       # Row buffer hit rate, read and write combined (Ratio)
system.mem_ctrls.dram.power_state.pwrStateResidencyTicks::UNDEFINED 284408670000                       # Cumulative time (in ticks) in various power states (Tick)
system.mem_ctrls.dram.rank0.actEnergy       392685720                       # Energy for activate commands per rank (pJ) (Joule)
system.mem_ctrls.dram.rank0.preEnergy       208717410                       # Energy for precharge commands per rank (pJ) (Joule)
system.mem_ctrls.dram.rank0.readEnergy     1433890500                       # Energy for read commands per rank (pJ) (Joule)
system.mem_ctrls.dram.rank0.writeEnergy     691180200                       # Energy for write commands per rank (pJ) (Joule)
system.mem_ctrls.dram.rank0.refreshEnergy 22450955280.000004                       # Energy for refresh commands per rank (pJ) (Joule)
system.mem_ctrls.dram.rank0.actBackEnergy  69233837610                       # Energy for active background per rank (pJ) (Joule)
system.mem_ctrls.dram.rank0.preBackEnergy  50910750240                       # Energy for precharge background per rank (pJ) (Joule)
system.mem_ctrls.dram.rank0.actPowerDownEnergy            0                       # Energy for active power-down per rank (pJ) (Joule)
system.mem_ctrls.dram.rank0.prePowerDownEnergy            0                       # Energy for precharge power-down per rank (pJ) (Joule)
system.mem_ctrls.dram.rank0.selfRefreshEnergy            0                       # Energy for self refresh per rank (pJ) (Joule)
system.mem_ctrls.dram.rank0.totalEnergy  145322016960                       # Total energy per rank (pJ) (Joule)
system.mem_ctrls.dram.rank0.averagePower   510.961979                       # Core power per rank (mW) (Watt)
system.mem_ctrls.dram.rank0.totalIdleTime            0                       # Total Idle time Per DRAM Rank (Tick)
system.mem_ctrls.dram.rank0.pwrStateTime::IDLE 131733512250                       # Time in different power states (Tick)
system.mem_ctrls.dram.rank0.pwrStateTime::REF   9497020000                       # Time in different power states (Tick)
system.mem_ctrls.dram.rank0.pwrStateTime::SREF            0                       # Time in different power states (Tick)
system.mem_ctrls.dram.rank0.pwrStateTime::PRE_PDN            0                       # Time in different power states (Tick)
system.mem_ctrls.dram.rank0.pwrStateTime::ACT 143178137750                       # Time in different power states (Tick)
system.mem_ctrls.dram.rank0.pwrStateTime::ACT_PDN            0                       # Time in different power states (Tick)
system.mem_ctrls.dram.rank1.actEnergy       271155780                       # Energy for activate commands per rank (pJ) (Joule)
system.mem_ctrls.dram.rank1.preEnergy       144122715                       # Energy for precharge commands per rank (pJ) (Joule)
system.mem_ctrls.dram.rank1.readEnergy      976537800                       # Energy for read commands per rank (pJ) (Joule)
system.mem_ctrls.dram.rank1.writeEnergy     702001260                       # Energy for write commands per rank (pJ) (Joule)
system.mem_ctrls.dram.rank1.refreshEnergy 22450955280.000004                       # Energy for refresh commands per rank (pJ) (Joule)
system.mem_ctrls.dram.rank1.actBackEnergy  38233303470                       # Energy for active background per rank (pJ) (Joule)
system.mem_ctrls.dram.rank1.preBackEnergy  77016463200                       # Energy for precharge background per rank (pJ) (Joule)
system.mem_ctrls.dram.rank1.actPowerDownEnergy            0                       # Energy for active power-down per rank (pJ) (Joule)
system.mem_ctrls.dram.rank1.prePowerDownEnergy            0                       # Energy for precharge power-down per rank (pJ) (Joule)
system.mem_ctrls.dram.rank1.selfRefreshEnergy            0                       # Energy for self refresh per rank (pJ) (Joule)
system.mem_ctrls.dram.rank1.totalEnergy  139794539505                       # Total energy per rank (pJ) (Joule)
system.mem_ctrls.dram.rank1.averagePower   491.526997                       # Core power per rank (mW) (Watt)
system.mem_ctrls.dram.rank1.totalIdleTime            0                       # Total Idle time Per DRAM Rank (Tick)
system.mem_ctrls.dram.rank1.pwrStateTime::IDLE 199824776000                       # Time in different power states (Tick)
system.mem_ctrls.dram.rank1.pwrStateTime::REF   9497020000                       # Time in different power states (Tick)
system.mem_ctrls.dram.rank1.pwrStateTime::SREF            0                       # Time in different power states (Tick)
system.mem_ctrls.dram.rank1.pwrStateTime::PRE_PDN            0                       # Time in different power states (Tick)
system.mem_ctrls.dram.rank1.pwrStateTime::ACT  75086874000                       # Time in different power states (Tick)
system.mem_ctrls.dram.rank1.pwrStateTime::ACT_PDN            0                       # Time in different power states (Tick)
system.mem_ctrls.power_state.pwrStateResidencyTicks::UNDEFINED 284408670000                       # Cumulative time (in ticks) in various power states (Tick)
system.membus.transDist::ReadResp               83224                       # Transaction distribution (Count)
system.membus.transDist::WritebackDirty        259143                       # Transaction distribution (Count)
system.membus.transDist::WritebackClean          8033                       # Transaction distribution (Count)
system.membus.transDist::CleanEvict             73262                       # Transaction distribution (Count)
system.membus.transDist::ReadExReq             258238                       # Transaction distribution (Count)
system.membus.transDist::ReadExResp            258238                       # Transaction distribution (Count)
system.membus.transDist::ReadCleanReq            8545                       # Transaction distribution (Count)
system.membus.transDist::ReadSharedReq          74679                       # Transaction distribution (Count)
system.membus.pktCount_system.cpu0.icache.mem_side_port::system.mem_ctrls.port        25122                       # Packet count per connected requestor and responder (Count)
system.membus.pktCount_system.cpu0.icache.mem_side_port::total        25122                       # Packet count per connected requestor and responder (Count)
system.membus.pktCount_system.cpu0.dcache.mem_side_port::system.mem_ctrls.port       998239                       # Packet count per connected requestor and responder (Count)
system.membus.pktCount_system.cpu0.dcache.mem_side_port::total       998239                       # Packet count per connected requestor and responder (Count)
system.membus.pktCount::total                 1023361                       # Packet count per connected requestor and responder (Count)
system.membus.pktSize_system.cpu0.icache.mem_side_port::system.mem_ctrls.port      1060928                       # Cumulative packet size per connected requestor and responder (Byte)
system.membus.pktSize_system.cpu0.icache.mem_side_port::total      1060928                       # Cumulative packet size per connected requestor and responder (Byte)
system.membus.pktSize_system.cpu0.dcache.mem_side_port::system.mem_ctrls.port     37891840                       # Cumulative packet size per connected requestor and responder (Byte)
system.membus.pktSize_system.cpu0.dcache.mem_side_port::total     37891840                       # Cumulative packet size per connected requestor and responder (Byte)
system.membus.pktSize::total                 38952768                       # Cumulative packet size per connected requestor and responder (Byte)
system.membus.snoops                                1                       # Total snoops (Count)
system.membus.snoopTraffic                         64                       # Total snoop traffic (Byte)
system.membus.snoopFanout::samples             341462                       # Request fanout histogram (Count)
system.membus.snoopFanout::mean              0.000032                       # Request fanout histogram (Count)
system.membus.snoopFanout::stdev             0.005676                       # Request fanout histogram (Count)
system.membus.snoopFanout::underflows               0      0.00%      0.00% # Request fanout histogram (Count)
system.membus.snoopFanout::0                   341451    100.00%    100.00% # Request fanout histogram (Count)
system.membus.snoopFanout::1                       11      0.00%    100.00% # Request fanout histogram (Count)
system.membus.snoopFanout::2                        0      0.00%    100.00% # Request fanout histogram (Count)
system.membus.snoopFanout::3                        0      0.00%    100.00% # Request fanout histogram (Count)
system.membus.snoopFanout::4                        0      0.00%    100.00% # Request fanout histogram (Count)
system.membus.snoopFanout::5                        0      0.00%    100.00% # Request fanout histogram (Count)
system.membus.snoopFanout::6                        0      0.00%    100.00% # Request fanout histogram (Count)
system.membus.snoopFanout::7                        0      0.00%    100.00% # Request fanout histogram (Count)
system.membus.snoopFanout::8                        0      0.00%    100.00% # Request fanout histogram (Count)
system.membus.snoopFanout::9                        0      0.00%    100.00% # Request fanout histogram (Count)
system.membus.snoopFanout::10                       0      0.00%    100.00% # Request fanout histogram (Count)
system.membus.snoopFanout::11                       0      0.00%    100.00% # Request fanout histogram (Count)
system.membus.snoopFanout::12                       0      0.00%    100.00% # Request fanout histogram (Count)
system.membus.snoopFanout::13                       0      0.00%    100.00% # Request fanout histogram (Count)
system.membus.snoopFanout::14                       0      0.00%    100.00% # Request fanout histogram (Count)
system.membus.snoopFanout::15                       0      0.00%    100.00% # Request fanout histogram (Count)
system.membus.snoopFanout::16                       0      0.00%    100.00% # Request fanout histogram (Count)
system.membus.snoopFanout::overflows                0      0.00%    100.00% # Request fanout histogram (Count)
system.membus.snoopFanout::min_value                0                       # Request fanout histogram (Count)
system.membus.snoopFanout::max_value                1                       # Request fanout histogram (Count)
system.membus.snoopFanout::total               341462                       # Request fanout histogram (Count)
system.membus.power_state.pwrStateResidencyTicks::UNDEFINED 284408670000                       # Cumulative time (in ticks) in various power states (Tick)
system.membus.reqLayer8.occupancy          1815637000                       # Layer occupancy (ticks) (Tick)
system.membus.reqLayer8.utilization               0.0                       # Layer utilization (Ratio)
system.membus.respLayer1.occupancy           44845750                       # Layer occupancy (ticks) (Tick)
system.membus.respLayer1.utilization              0.0                       # Layer utilization (Ratio)
system.membus.respLayer2.occupancy         1762684500                       # Layer occupancy (ticks) (Tick)
system.membus.respLayer2.utilization              0.0                       # Layer utilization (Ratio)
system.membus.snoop_filter.totRequests         681900                       # Total number of requests made to the snoop filter. (Count)
system.membus.snoop_filter.hitSingleRequests       340438                       # Number of requests hitting in the snoop filter with a single holder of the requested data. (Count)
system.membus.snoop_filter.hitMultiRequests           11                       # Number of requests hitting in the snoop filter with multiple (>1) holders of the requested data. (Count)
system.membus.snoop_filter.totSnoops                0                       # Total number of snoops made to the snoop filter. (Count)
system.membus.snoop_filter.hitSingleSnoops            0                       # Number of snoops hitting in the snoop filter with a single holder of the requested data. (Count)
system.membus.snoop_filter.hitMultiSnoops            0                       # Number of snoops hitting in the snoop filter with multiple (>1) holders of the requested data. (Count)
system.voltage_domain.voltage                       1                       # Voltage in Volts (Volt)
system.workload.inst.arm                            0                       # number of arm instructions executed (Count)
system.workload.inst.quiesce                        0                       # number of quiesce instructions executed (Count)

---------- End Simulation Statistics   ----------
