
---------- Begin Simulation Statistics ----------
simSeconds                                   0.000273                       # Number of seconds simulated (Second)
simTicks                                    272862000                       # Number of ticks simulated (Tick)
finalTick                                   272862000                       # Number of ticks from beginning of simulation (restored from checkpoints and never reset) (Tick)
simFreq                                  1000000000000                       # The number of ticks per simulated second ((Tick/Second))
hostSeconds                                      3.81                       # Real time elapsed on the host (Second)
hostTickRate                                 71538265                       # The number of ticks simulated per host second (ticks/s) ((Tick/Second))
hostMemory                                    8776000                       # Number of bytes of host memory used (Byte)
simInsts                                       239113                       # Number of instructions simulated (Count)
simOps                                         464287                       # Number of ops (including micro ops) simulated (Count)
hostInstRate                                    62684                       # Simulator instruction rate (inst/s) ((Count/Second))
hostOpRate                                     121714                       # Simulator op (including micro ops) rate (op/s) ((Count/Second))
system.clk_domain.clock                          1000                       # Clock period in ticks (Tick)
system.cpu0.numCycles                          545725                       # Number of cpu cycles simulated (Cycle)
system.cpu0.numWorkItemsStarted                     0                       # Number of work items this cpu started (Count)
system.cpu0.numWorkItemsCompleted                   0                       # Number of work items this cpu completed (Count)
system.cpu0.instsAdded                         807164                       # Number of instructions added to the IQ (excludes non-spec) (Count)
system.cpu0.nonSpecInstsAdded                     181                       # Number of non-speculative instructions added to the IQ (Count)
system.cpu0.instsIssued                        693039                       # Number of instructions issued (Count)
system.cpu0.squashedInstsIssued                  1223                       # Number of squashed instructions issued (Count)
system.cpu0.squashedInstsExamined              343052                       # Number of squashed instructions iterated over during squash; mainly for profiling (Count)
system.cpu0.squashedOperandsExamined           713310                       # Number of squashed operands that are examined and possibly removed from graph (Count)
system.cpu0.squashedNonSpecRemoved                 91                       # Number of squashed non-spec instructions that were removed (Count)
system.cpu0.numIssuedDist::samples             461629                       # Number of insts issued each cycle (Count)
system.cpu0.numIssuedDist::mean              1.501290                       # Number of insts issued each cycle (Count)
system.cpu0.numIssuedDist::stdev             2.167333                       # Number of insts issued each cycle (Count)
system.cpu0.numIssuedDist::underflows               0      0.00%      0.00% # Number of insts issued each cycle (Count)
system.cpu0.numIssuedDist::0                   265812     57.58%     57.58% # Number of insts issued each cycle (Count)
system.cpu0.numIssuedDist::1                    37751      8.18%     65.76% # Number of insts issued each cycle (Count)
system.cpu0.numIssuedDist::2                    31470      6.82%     72.58% # Number of insts issued each cycle (Count)
system.cpu0.numIssuedDist::3                    35516      7.69%     80.27% # Number of insts issued each cycle (Count)
system.cpu0.numIssuedDist::4                    29235      6.33%     86.60% # Number of insts issued each cycle (Count)
system.cpu0.numIssuedDist::5                    23802      5.16%     91.76% # Number of insts issued each cycle (Count)
system.cpu0.numIssuedDist::6                    22723      4.92%     96.68% # Number of insts issued each cycle (Count)
system.cpu0.numIssuedDist::7                     9048      1.96%     98.64% # Number of insts issued each cycle (Count)
system.cpu0.numIssuedDist::8                     6272      1.36%    100.00% # Number of insts issued each cycle (Count)
system.cpu0.numIssuedDist::overflows                0      0.00%    100.00% # Number of insts issued each cycle (Count)
system.cpu0.numIssuedDist::min_value                0                       # Number of insts issued each cycle (Count)
system.cpu0.numIssuedDist::max_value                8                       # Number of insts issued each cycle (Count)
system.cpu0.numIssuedDist::total               461629                       # Number of insts issued each cycle (Count)
system.cpu0.statFuBusy::No_OpClass                  0      0.00%      0.00% # attempts to use FU when none available (Count)
system.cpu0.statFuBusy::IntAlu                   7771     77.42%     77.42% # attempts to use FU when none available (Count)
system.cpu0.statFuBusy::IntMult                     0      0.00%     77.42% # attempts to use FU when none available (Count)
system.cpu0.statFuBusy::IntDiv                      0      0.00%     77.42% # attempts to use FU when none available (Count)
system.cpu0.statFuBusy::FloatAdd                    0      0.00%     77.42% # attempts to use FU when none available (Count)
system.cpu0.statFuBusy::FloatCmp                    0      0.00%     77.42% # attempts to use FU when none available (Count)
system.cpu0.statFuBusy::FloatCvt                    1      0.01%     77.43% # attempts to use FU when none available (Count)
system.cpu0.statFuBusy::FloatMult                   0      0.00%     77.43% # attempts to use FU when none available (Count)
system.cpu0.statFuBusy::FloatMultAcc                0      0.00%     77.43% # attempts to use FU when none available (Count)
system.cpu0.statFuBusy::FloatDiv                    0      0.00%     77.43% # attempts to use FU when none available (Count)
system.cpu0.statFuBusy::FloatMisc                   0      0.00%     77.43% # attempts to use FU when none available (Count)
system.cpu0.statFuBusy::FloatSqrt                   0      0.00%     77.43% # attempts to use FU when none available (Count)
system.cpu0.statFuBusy::SimdAdd                     0      0.00%     77.43% # attempts to use FU when none available (Count)
system.cpu0.statFuBusy::SimdAddAcc                  0      0.00%     77.43% # attempts to use FU when none available (Count)
system.cpu0.statFuBusy::SimdAlu                    11      0.11%     77.54% # attempts to use FU when none available (Count)
system.cpu0.statFuBusy::SimdCmp                     0      0.00%     77.54% # attempts to use FU when none available (Count)
system.cpu0.statFuBusy::SimdCvt                     2      0.02%     77.56% # attempts to use FU when none available (Count)
system.cpu0.statFuBusy::SimdMisc                    1      0.01%     77.57% # attempts to use FU when none available (Count)
system.cpu0.statFuBusy::SimdMult                    0      0.00%     77.57% # attempts to use FU when none available (Count)
system.cpu0.statFuBusy::SimdMultAcc                 0      0.00%     77.57% # attempts to use FU when none available (Count)
system.cpu0.statFuBusy::SimdShift                  25      0.25%     77.82% # attempts to use FU when none available (Count)
system.cpu0.statFuBusy::SimdShiftAcc                0      0.00%     77.82% # attempts to use FU when none available (Count)
system.cpu0.statFuBusy::SimdDiv                     0      0.00%     77.82% # attempts to use FU when none available (Count)
system.cpu0.statFuBusy::SimdSqrt                    0      0.00%     77.82% # attempts to use FU when none available (Count)
system.cpu0.statFuBusy::SimdFloatAdd                0      0.00%     77.82% # attempts to use FU when none available (Count)
system.cpu0.statFuBusy::SimdFloatAlu                0      0.00%     77.82% # attempts to use FU when none available (Count)
system.cpu0.statFuBusy::SimdFloatCmp                0      0.00%     77.82% # attempts to use FU when none available (Count)
system.cpu0.statFuBusy::SimdFloatCvt                0      0.00%     77.82% # attempts to use FU when none available (Count)
system.cpu0.statFuBusy::SimdFloatDiv                0      0.00%     77.82% # attempts to use FU when none available (Count)
system.cpu0.statFuBusy::SimdFloatMisc               0      0.00%     77.82% # attempts to use FU when none available (Count)
system.cpu0.statFuBusy::SimdFloatMult               0      0.00%     77.82% # attempts to use FU when none available (Count)
system.cpu0.statFuBusy::SimdFloatMultAcc            0      0.00%     77.82% # attempts to use FU when none available (Count)
system.cpu0.statFuBusy::SimdFloatSqrt               0      0.00%     77.82% # attempts to use FU when none available (Count)
system.cpu0.statFuBusy::SimdReduceAdd               0      0.00%     77.82% # attempts to use FU when none available (Count)
system.cpu0.statFuBusy::SimdReduceAlu               0      0.00%     77.82% # attempts to use FU when none available (Count)
system.cpu0.statFuBusy::SimdReduceCmp               0      0.00%     77.82% # attempts to use FU when none available (Count)
system.cpu0.statFuBusy::SimdFloatReduceAdd            0      0.00%     77.82% # attempts to use FU when none available (Count)
system.cpu0.statFuBusy::SimdFloatReduceCmp            0      0.00%     77.82% # attempts to use FU when none available (Count)
system.cpu0.statFuBusy::SimdAes                     0      0.00%     77.82% # attempts to use FU when none available (Count)
system.cpu0.statFuBusy::SimdAesMix                  0      0.00%     77.82% # attempts to use FU when none available (Count)
system.cpu0.statFuBusy::SimdSha1Hash                0      0.00%     77.82% # attempts to use FU when none available (Count)
system.cpu0.statFuBusy::SimdSha1Hash2               0      0.00%     77.82% # attempts to use FU when none available (Count)
system.cpu0.statFuBusy::SimdSha256Hash              0      0.00%     77.82% # attempts to use FU when none available (Count)
system.cpu0.statFuBusy::SimdSha256Hash2             0      0.00%     77.82% # attempts to use FU when none available (Count)
system.cpu0.statFuBusy::SimdShaSigma2               0      0.00%     77.82% # attempts to use FU when none available (Count)
system.cpu0.statFuBusy::SimdShaSigma3               0      0.00%     77.82% # attempts to use FU when none available (Count)
system.cpu0.statFuBusy::SimdPredAlu                 0      0.00%     77.82% # attempts to use FU when none available (Count)
system.cpu0.statFuBusy::MemRead                  1180     11.76%     89.58% # attempts to use FU when none available (Count)
system.cpu0.statFuBusy::MemWrite                  988      9.84%     99.42% # attempts to use FU when none available (Count)
system.cpu0.statFuBusy::FloatMemRead               47      0.47%     99.89% # attempts to use FU when none available (Count)
system.cpu0.statFuBusy::FloatMemWrite              11      0.11%    100.00% # attempts to use FU when none available (Count)
system.cpu0.statFuBusy::IprAccess                   0      0.00%    100.00% # attempts to use FU when none available (Count)
system.cpu0.statFuBusy::InstPrefetch                0      0.00%    100.00% # attempts to use FU when none available (Count)
system.cpu0.statIssuedInstType_0::No_OpClass         4485      0.65%      0.65% # Number of instructions issued per FU type, per thread (Count)
system.cpu0.statIssuedInstType_0::IntAlu       545035     78.64%     79.29% # Number of instructions issued per FU type, per thread (Count)
system.cpu0.statIssuedInstType_0::IntMult           70      0.01%     79.30% # Number of instructions issued per FU type, per thread (Count)
system.cpu0.statIssuedInstType_0::IntDiv         3701      0.53%     79.84% # Number of instructions issued per FU type, per thread (Count)
system.cpu0.statIssuedInstType_0::FloatAdd          324      0.05%     79.88% # Number of instructions issued per FU type, per thread (Count)
system.cpu0.statIssuedInstType_0::FloatCmp            0      0.00%     79.88% # Number of instructions issued per FU type, per thread (Count)
system.cpu0.statIssuedInstType_0::FloatCvt          224      0.03%     79.91% # Number of instructions issued per FU type, per thread (Count)
system.cpu0.statIssuedInstType_0::FloatMult            0      0.00%     79.91% # Number of instructions issued per FU type, per thread (Count)
system.cpu0.statIssuedInstType_0::FloatMultAcc            0      0.00%     79.91% # Number of instructions issued per FU type, per thread (Count)
system.cpu0.statIssuedInstType_0::FloatDiv            0      0.00%     79.91% # Number of instructions issued per FU type, per thread (Count)
system.cpu0.statIssuedInstType_0::FloatMisc            0      0.00%     79.91% # Number of instructions issued per FU type, per thread (Count)
system.cpu0.statIssuedInstType_0::FloatSqrt            0      0.00%     79.91% # Number of instructions issued per FU type, per thread (Count)
system.cpu0.statIssuedInstType_0::SimdAdd         1774      0.26%     80.17% # Number of instructions issued per FU type, per thread (Count)
system.cpu0.statIssuedInstType_0::SimdAddAcc            0      0.00%     80.17% # Number of instructions issued per FU type, per thread (Count)
system.cpu0.statIssuedInstType_0::SimdAlu         2401      0.35%     80.52% # Number of instructions issued per FU type, per thread (Count)
system.cpu0.statIssuedInstType_0::SimdCmp            0      0.00%     80.52% # Number of instructions issued per FU type, per thread (Count)
system.cpu0.statIssuedInstType_0::SimdCvt         3912      0.56%     81.08% # Number of instructions issued per FU type, per thread (Count)
system.cpu0.statIssuedInstType_0::SimdMisc         2015      0.29%     81.37% # Number of instructions issued per FU type, per thread (Count)
system.cpu0.statIssuedInstType_0::SimdMult            0      0.00%     81.37% # Number of instructions issued per FU type, per thread (Count)
system.cpu0.statIssuedInstType_0::SimdMultAcc            0      0.00%     81.37% # Number of instructions issued per FU type, per thread (Count)
system.cpu0.statIssuedInstType_0::SimdShift          693      0.10%     81.47% # Number of instructions issued per FU type, per thread (Count)
system.cpu0.statIssuedInstType_0::SimdShiftAcc            0      0.00%     81.47% # Number of instructions issued per FU type, per thread (Count)
system.cpu0.statIssuedInstType_0::SimdDiv            0      0.00%     81.47% # Number of instructions issued per FU type, per thread (Count)
system.cpu0.statIssuedInstType_0::SimdSqrt            0      0.00%     81.47% # Number of instructions issued per FU type, per thread (Count)
system.cpu0.statIssuedInstType_0::SimdFloatAdd            0      0.00%     81.47% # Number of instructions issued per FU type, per thread (Count)
system.cpu0.statIssuedInstType_0::SimdFloatAlu            0      0.00%     81.47% # Number of instructions issued per FU type, per thread (Count)
system.cpu0.statIssuedInstType_0::SimdFloatCmp            0      0.00%     81.47% # Number of instructions issued per FU type, per thread (Count)
system.cpu0.statIssuedInstType_0::SimdFloatCvt            0      0.00%     81.47% # Number of instructions issued per FU type, per thread (Count)
system.cpu0.statIssuedInstType_0::SimdFloatDiv            0      0.00%     81.47% # Number of instructions issued per FU type, per thread (Count)
system.cpu0.statIssuedInstType_0::SimdFloatMisc            0      0.00%     81.47% # Number of instructions issued per FU type, per thread (Count)
system.cpu0.statIssuedInstType_0::SimdFloatMult            0      0.00%     81.47% # Number of instructions issued per FU type, per thread (Count)
system.cpu0.statIssuedInstType_0::SimdFloatMultAcc            0      0.00%     81.47% # Number of instructions issued per FU type, per thread (Count)
system.cpu0.statIssuedInstType_0::SimdFloatSqrt            0      0.00%     81.47% # Number of instructions issued per FU type, per thread (Count)
system.cpu0.statIssuedInstType_0::SimdReduceAdd            0      0.00%     81.47% # Number of instructions issued per FU type, per thread (Count)
system.cpu0.statIssuedInstType_0::SimdReduceAlu            0      0.00%     81.47% # Number of instructions issued per FU type, per thread (Count)
system.cpu0.statIssuedInstType_0::SimdReduceCmp            0      0.00%     81.47% # Number of instructions issued per FU type, per thread (Count)
system.cpu0.statIssuedInstType_0::SimdFloatReduceAdd            0      0.00%     81.47% # Number of instructions issued per FU type, per thread (Count)
system.cpu0.statIssuedInstType_0::SimdFloatReduceCmp            0      0.00%     81.47% # Number of instructions issued per FU type, per thread (Count)
system.cpu0.statIssuedInstType_0::SimdAes            0      0.00%     81.47% # Number of instructions issued per FU type, per thread (Count)
system.cpu0.statIssuedInstType_0::SimdAesMix            0      0.00%     81.47% # Number of instructions issued per FU type, per thread (Count)
system.cpu0.statIssuedInstType_0::SimdSha1Hash            0      0.00%     81.47% # Number of instructions issued per FU type, per thread (Count)
system.cpu0.statIssuedInstType_0::SimdSha1Hash2            0      0.00%     81.47% # Number of instructions issued per FU type, per thread (Count)
system.cpu0.statIssuedInstType_0::SimdSha256Hash            0      0.00%     81.47% # Number of instructions issued per FU type, per thread (Count)
system.cpu0.statIssuedInstType_0::SimdSha256Hash2            0      0.00%     81.47% # Number of instructions issued per FU type, per thread (Count)
system.cpu0.statIssuedInstType_0::SimdShaSigma2            0      0.00%     81.47% # Number of instructions issued per FU type, per thread (Count)
system.cpu0.statIssuedInstType_0::SimdShaSigma3            0      0.00%     81.47% # Number of instructions issued per FU type, per thread (Count)
system.cpu0.statIssuedInstType_0::SimdPredAlu            0      0.00%     81.47% # Number of instructions issued per FU type, per thread (Count)
system.cpu0.statIssuedInstType_0::MemRead        93084     13.43%     94.90% # Number of instructions issued per FU type, per thread (Count)
system.cpu0.statIssuedInstType_0::MemWrite        30122      4.35%     99.25% # Number of instructions issued per FU type, per thread (Count)
system.cpu0.statIssuedInstType_0::FloatMemRead         4755      0.69%     99.94% # Number of instructions issued per FU type, per thread (Count)
system.cpu0.statIssuedInstType_0::FloatMemWrite          444      0.06%    100.00% # Number of instructions issued per FU type, per thread (Count)
system.cpu0.statIssuedInstType_0::IprAccess            0      0.00%    100.00% # Number of instructions issued per FU type, per thread (Count)
system.cpu0.statIssuedInstType_0::InstPrefetch            0      0.00%    100.00% # Number of instructions issued per FU type, per thread (Count)
system.cpu0.statIssuedInstType_0::total        693039                       # Number of instructions issued per FU type, per thread (Count)
system.cpu0.issueRate                        1.269942                       # Inst issue rate ((Count/Cycle))
system.cpu0.fuBusy                              10037                       # FU busy when requested (Count)
system.cpu0.fuBusyRate                       0.014483                       # FU busy rate (busy events/executed inst) ((Count/Count))
system.cpu0.intInstQueueReads                 1825512                       # Number of integer instruction queue reads (Count)
system.cpu0.intInstQueueWrites                1125130                       # Number of integer instruction queue writes (Count)
system.cpu0.intInstQueueWakeupAccesses         650009                       # Number of integer instruction queue wakeup accesses (Count)
system.cpu0.fpInstQueueReads                    33455                       # Number of floating instruction queue reads (Count)
system.cpu0.fpInstQueueWrites                   25366                       # Number of floating instruction queue writes (Count)
system.cpu0.fpInstQueueWakeupAccesses           16166                       # Number of floating instruction queue wakeup accesses (Count)
system.cpu0.vecInstQueueReads                       0                       # Number of vector instruction queue reads (Count)
system.cpu0.vecInstQueueWrites                      0                       # Number of vector instruction queue writes (Count)
system.cpu0.vecInstQueueWakeupAccesses              0                       # Number of vector instruction queue wakeup accesses (Count)
system.cpu0.intAluAccesses                     681847                       # Number of integer alu accesses (Count)
system.cpu0.fpAluAccesses                       16744                       # Number of floating point alu accesses (Count)
system.cpu0.vecAluAccesses                          0                       # Number of vector alu accesses (Count)
system.cpu0.numInsts                           679800                       # Number of executed instructions (Count)
system.cpu0.numLoadInsts                        94987                       # Number of load instructions executed (Count)
system.cpu0.numSquashedInsts                    13239                       # Number of squashed instructions skipped in execute (Count)
system.cpu0.numSwp                                  0                       # Number of swp insts executed (Count)
system.cpu0.numNop                                  0                       # Number of nop insts executed (Count)
system.cpu0.numRefs                            124862                       # Number of memory reference insts executed (Count)
system.cpu0.numBranches                         68860                       # Number of branches executed (Count)
system.cpu0.numStoreInsts                       29875                       # Number of stores executed (Count)
system.cpu0.numRate                          1.245682                       # Inst execution rate ((Count/Cycle))
system.cpu0.timesIdled                            900                       # Number of times that the entire CPU went into an idle state and unscheduled itself (Count)
system.cpu0.idleCycles                          84096                       # Total number of cycles that the CPU has spent unscheduled due to idling (Cycle)
system.cpu0.committedInsts                     239113                       # Number of Instructions Simulated (Count)
system.cpu0.committedOps                       464287                       # Number of Ops (including micro ops) Simulated (Count)
system.cpu0.cpi                              2.282289                       # CPI: Cycles Per Instruction ((Cycle/Count))
system.cpu0.totalCpi                         2.282289                       # CPI: Total CPI of All Threads ((Cycle/Count))
system.cpu0.ipc                              0.438157                       # IPC: Instructions Per Cycle ((Count/Cycle))
system.cpu0.totalIpc                         0.438157                       # IPC: Total IPC of All Threads ((Count/Cycle))
system.cpu0.intRegfileReads                    829377                       # Number of integer regfile reads (Count)
system.cpu0.intRegfileWrites                   508190                       # Number of integer regfile writes (Count)
system.cpu0.fpRegfileReads                      26011                       # Number of floating regfile reads (Count)
system.cpu0.fpRegfileWrites                     13657                       # Number of floating regfile writes (Count)
system.cpu0.ccRegfileReads                     388392                       # number of cc regfile reads (Count)
system.cpu0.ccRegfileWrites                    238987                       # number of cc regfile writes (Count)
system.cpu0.miscRegfileReads                   275624                       # number of misc regfile reads (Count)
system.cpu0.miscRegfileWrites                      90                       # number of misc regfile writes (Count)
system.cpu0.MemDepUnit__0.insertedLoads        108584                       # Number of loads inserted to the mem dependence unit. (Count)
system.cpu0.MemDepUnit__0.insertedStores        33829                       # Number of stores inserted to the mem dependence unit. (Count)
system.cpu0.MemDepUnit__0.conflictingLoads         1775                       # Number of conflicting loads. (Count)
system.cpu0.MemDepUnit__0.conflictingStores          990                       # Number of conflicting stores. (Count)
system.cpu0.MemDepUnit__1.insertedLoads             0                       # Number of loads inserted to the mem dependence unit. (Count)
system.cpu0.MemDepUnit__1.insertedStores            0                       # Number of stores inserted to the mem dependence unit. (Count)
system.cpu0.MemDepUnit__1.conflictingLoads            0                       # Number of conflicting loads. (Count)
system.cpu0.MemDepUnit__1.conflictingStores            0                       # Number of conflicting stores. (Count)
system.cpu0.MemDepUnit__2.insertedLoads             0                       # Number of loads inserted to the mem dependence unit. (Count)
system.cpu0.MemDepUnit__2.insertedStores            0                       # Number of stores inserted to the mem dependence unit. (Count)
system.cpu0.MemDepUnit__2.conflictingLoads            0                       # Number of conflicting loads. (Count)
system.cpu0.MemDepUnit__2.conflictingStores            0                       # Number of conflicting stores. (Count)
system.cpu0.MemDepUnit__3.insertedLoads             0                       # Number of loads inserted to the mem dependence unit. (Count)
system.cpu0.MemDepUnit__3.insertedStores            0                       # Number of stores inserted to the mem dependence unit. (Count)
system.cpu0.MemDepUnit__3.conflictingLoads            0                       # Number of conflicting loads. (Count)
system.cpu0.MemDepUnit__3.conflictingStores            0                       # Number of conflicting stores. (Count)
system.cpu0.branchPred.lookups                 113671                       # Number of BP lookups (Count)
system.cpu0.branchPred.condPredicted            96112                       # Number of conditional branches predicted (Count)
system.cpu0.branchPred.condIncorrect             7724                       # Number of conditional branches incorrect (Count)
system.cpu0.branchPred.BTBLookups               58769                       # Number of BTB lookups (Count)
system.cpu0.branchPred.BTBHits                  55617                       # Number of BTB hits (Count)
system.cpu0.branchPred.BTBHitRatio           0.946366                       # BTB Hit Ratio (Ratio)
system.cpu0.branchPred.RASUsed                   4456                       # Number of times the RAS was used to get a target. (Count)
system.cpu0.branchPred.RASIncorrect                 3                       # Number of incorrect RAS predictions. (Count)
system.cpu0.branchPred.indirectLookups           2408                       # Number of indirect predictor lookups. (Count)
system.cpu0.branchPred.indirectHits               437                       # Number of indirect target hits. (Count)
system.cpu0.branchPred.indirectMisses            1971                       # Number of indirect misses. (Count)
system.cpu0.branchPred.indirectMispredicted          474                       # Number of mispredicted indirect branches. (Count)
system.cpu0.commit.commitSquashedInsts         340312                       # The number of squashed insts skipped by commit (Count)
system.cpu0.commit.commitNonSpecStalls             90                       # The number of times commit has been forced to stall to communicate backwards (Count)
system.cpu0.commit.branchMispredicts             7521                       # The number of times a branch was mispredicted (Count)
system.cpu0.commit.numCommittedDist::samples       412043                       # Number of insts commited each cycle (Count)
system.cpu0.commit.numCommittedDist::mean     1.126793                       # Number of insts commited each cycle (Count)
system.cpu0.commit.numCommittedDist::stdev     2.138313                       # Number of insts commited each cycle (Count)
system.cpu0.commit.numCommittedDist::underflows            0      0.00%      0.00% # Number of insts commited each cycle (Count)
system.cpu0.commit.numCommittedDist::0         275239     66.80%     66.80% # Number of insts commited each cycle (Count)
system.cpu0.commit.numCommittedDist::1          41590     10.09%     76.89% # Number of insts commited each cycle (Count)
system.cpu0.commit.numCommittedDist::2          20034      4.86%     81.75% # Number of insts commited each cycle (Count)
system.cpu0.commit.numCommittedDist::3          29614      7.19%     88.94% # Number of insts commited each cycle (Count)
system.cpu0.commit.numCommittedDist::4           8779      2.13%     91.07% # Number of insts commited each cycle (Count)
system.cpu0.commit.numCommittedDist::5           8301      2.01%     93.09% # Number of insts commited each cycle (Count)
system.cpu0.commit.numCommittedDist::6           4327      1.05%     94.14% # Number of insts commited each cycle (Count)
system.cpu0.commit.numCommittedDist::7           2068      0.50%     94.64% # Number of insts commited each cycle (Count)
system.cpu0.commit.numCommittedDist::8          22091      5.36%    100.00% # Number of insts commited each cycle (Count)
system.cpu0.commit.numCommittedDist::overflows            0      0.00%    100.00% # Number of insts commited each cycle (Count)
system.cpu0.commit.numCommittedDist::min_value            0                       # Number of insts commited each cycle (Count)
system.cpu0.commit.numCommittedDist::max_value            8                       # Number of insts commited each cycle (Count)
system.cpu0.commit.numCommittedDist::total       412043                       # Number of insts commited each cycle (Count)
system.cpu0.commit.instsCommitted              239113                       # Number of instructions committed (Count)
system.cpu0.commit.opsCommitted                464287                       # Number of ops (including micro ops) committed (Count)
system.cpu0.commit.memRefs                      83555                       # Number of memory references committed (Count)
system.cpu0.commit.loads                        61696                       # Number of loads committed (Count)
system.cpu0.commit.amos                             0                       # Number of atomic instructions committed (Count)
system.cpu0.commit.membars                          0                       # Number of memory barriers committed (Count)
system.cpu0.commit.branches                     54163                       # Number of branches committed (Count)
system.cpu0.commit.vectorInstructions               0                       # Number of committed Vector instructions. (Count)
system.cpu0.commit.floating                     11518                       # Number of committed floating point instructions. (Count)
system.cpu0.commit.integer                     451714                       # Number of committed integer instructions. (Count)
system.cpu0.commit.functionCalls                 2285                       # Number of function calls committed. (Count)
system.cpu0.commit.committedInstType_0::No_OpClass         1889      0.41%      0.41% # Class of committed instruction (Count)
system.cpu0.commit.committedInstType_0::IntAlu       367517     79.16%     79.56% # Class of committed instruction (Count)
system.cpu0.commit.committedInstType_0::IntMult           37      0.01%     79.57% # Class of committed instruction (Count)
system.cpu0.commit.committedInstType_0::IntDiv         3429      0.74%     80.31% # Class of committed instruction (Count)
system.cpu0.commit.committedInstType_0::FloatAdd          125      0.03%     80.34% # Class of committed instruction (Count)
system.cpu0.commit.committedInstType_0::FloatCmp            0      0.00%     80.34% # Class of committed instruction (Count)
system.cpu0.commit.committedInstType_0::FloatCvt          160      0.03%     80.37% # Class of committed instruction (Count)
system.cpu0.commit.committedInstType_0::FloatMult            0      0.00%     80.37% # Class of committed instruction (Count)
system.cpu0.commit.committedInstType_0::FloatMultAcc            0      0.00%     80.37% # Class of committed instruction (Count)
system.cpu0.commit.committedInstType_0::FloatDiv            0      0.00%     80.37% # Class of committed instruction (Count)
system.cpu0.commit.committedInstType_0::FloatMisc            0      0.00%     80.37% # Class of committed instruction (Count)
system.cpu0.commit.committedInstType_0::FloatSqrt            0      0.00%     80.37% # Class of committed instruction (Count)
system.cpu0.commit.committedInstType_0::SimdAdd         1350      0.29%     80.66% # Class of committed instruction (Count)
system.cpu0.commit.committedInstType_0::SimdAddAcc            0      0.00%     80.66% # Class of committed instruction (Count)
system.cpu0.commit.committedInstType_0::SimdAlu         1527      0.33%     80.99% # Class of committed instruction (Count)
system.cpu0.commit.committedInstType_0::SimdCmp            0      0.00%     80.99% # Class of committed instruction (Count)
system.cpu0.commit.committedInstType_0::SimdCvt         2844      0.61%     81.60% # Class of committed instruction (Count)
system.cpu0.commit.committedInstType_0::SimdMisc         1550      0.33%     81.94% # Class of committed instruction (Count)
system.cpu0.commit.committedInstType_0::SimdMult            0      0.00%     81.94% # Class of committed instruction (Count)
system.cpu0.commit.committedInstType_0::SimdMultAcc            0      0.00%     81.94% # Class of committed instruction (Count)
system.cpu0.commit.committedInstType_0::SimdShift          304      0.07%     82.00% # Class of committed instruction (Count)
system.cpu0.commit.committedInstType_0::SimdShiftAcc            0      0.00%     82.00% # Class of committed instruction (Count)
system.cpu0.commit.committedInstType_0::SimdDiv            0      0.00%     82.00% # Class of committed instruction (Count)
system.cpu0.commit.committedInstType_0::SimdSqrt            0      0.00%     82.00% # Class of committed instruction (Count)
system.cpu0.commit.committedInstType_0::SimdFloatAdd            0      0.00%     82.00% # Class of committed instruction (Count)
system.cpu0.commit.committedInstType_0::SimdFloatAlu            0      0.00%     82.00% # Class of committed instruction (Count)
system.cpu0.commit.committedInstType_0::SimdFloatCmp            0      0.00%     82.00% # Class of committed instruction (Count)
system.cpu0.commit.committedInstType_0::SimdFloatCvt            0      0.00%     82.00% # Class of committed instruction (Count)
system.cpu0.commit.committedInstType_0::SimdFloatDiv            0      0.00%     82.00% # Class of committed instruction (Count)
system.cpu0.commit.committedInstType_0::SimdFloatMisc            0      0.00%     82.00% # Class of committed instruction (Count)
system.cpu0.commit.committedInstType_0::SimdFloatMult            0      0.00%     82.00% # Class of committed instruction (Count)
system.cpu0.commit.committedInstType_0::SimdFloatMultAcc            0      0.00%     82.00% # Class of committed instruction (Count)
system.cpu0.commit.committedInstType_0::SimdFloatSqrt            0      0.00%     82.00% # Class of committed instruction (Count)
system.cpu0.commit.committedInstType_0::SimdReduceAdd            0      0.00%     82.00% # Class of committed instruction (Count)
system.cpu0.commit.committedInstType_0::SimdReduceAlu            0      0.00%     82.00% # Class of committed instruction (Count)
system.cpu0.commit.committedInstType_0::SimdReduceCmp            0      0.00%     82.00% # Class of committed instruction (Count)
system.cpu0.commit.committedInstType_0::SimdFloatReduceAdd            0      0.00%     82.00% # Class of committed instruction (Count)
system.cpu0.commit.committedInstType_0::SimdFloatReduceCmp            0      0.00%     82.00% # Class of committed instruction (Count)
system.cpu0.commit.committedInstType_0::SimdAes            0      0.00%     82.00% # Class of committed instruction (Count)
system.cpu0.commit.committedInstType_0::SimdAesMix            0      0.00%     82.00% # Class of committed instruction (Count)
system.cpu0.commit.committedInstType_0::SimdSha1Hash            0      0.00%     82.00% # Class of committed instruction (Count)
system.cpu0.commit.committedInstType_0::SimdSha1Hash2            0      0.00%     82.00% # Class of committed instruction (Count)
system.cpu0.commit.committedInstType_0::SimdSha256Hash            0      0.00%     82.00% # Class of committed instruction (Count)
system.cpu0.commit.committedInstType_0::SimdSha256Hash2            0      0.00%     82.00% # Class of committed instruction (Count)
system.cpu0.commit.committedInstType_0::SimdShaSigma2            0      0.00%     82.00% # Class of committed instruction (Count)
system.cpu0.commit.committedInstType_0::SimdShaSigma3            0      0.00%     82.00% # Class of committed instruction (Count)
system.cpu0.commit.committedInstType_0::SimdPredAlu            0      0.00%     82.00% # Class of committed instruction (Count)
system.cpu0.commit.committedInstType_0::MemRead        58526     12.61%     94.61% # Class of committed instruction (Count)
system.cpu0.commit.committedInstType_0::MemWrite        21427      4.62%     99.22% # Class of committed instruction (Count)
system.cpu0.commit.committedInstType_0::FloatMemRead         3170      0.68%     99.91% # Class of committed instruction (Count)
system.cpu0.commit.committedInstType_0::FloatMemWrite          432      0.09%    100.00% # Class of committed instruction (Count)
system.cpu0.commit.committedInstType_0::IprAccess            0      0.00%    100.00% # Class of committed instruction (Count)
system.cpu0.commit.committedInstType_0::InstPrefetch            0      0.00%    100.00% # Class of committed instruction (Count)
system.cpu0.commit.committedInstType_0::total       464287                       # Class of committed instruction (Count)
system.cpu0.commit.commitEligibleSamples        22091                       # number cycles where commit BW limit reached (Cycle)
system.cpu0.dcache.demandHits::cpu0.data        94593                       # number of demand (read+write) hits (Count)
system.cpu0.dcache.demandHits::total            94593                       # number of demand (read+write) hits (Count)
system.cpu0.dcache.overallHits::cpu0.data        94593                       # number of overall hits (Count)
system.cpu0.dcache.overallHits::total           94593                       # number of overall hits (Count)
system.cpu0.dcache.demandMisses::cpu0.data        13658                       # number of demand (read+write) misses (Count)
system.cpu0.dcache.demandMisses::total          13658                       # number of demand (read+write) misses (Count)
system.cpu0.dcache.overallMisses::cpu0.data        13658                       # number of overall misses (Count)
system.cpu0.dcache.overallMisses::total         13658                       # number of overall misses (Count)
system.cpu0.dcache.demandMissLatency::cpu0.data    703228989                       # number of demand (read+write) miss ticks (Tick)
system.cpu0.dcache.demandMissLatency::total    703228989                       # number of demand (read+write) miss ticks (Tick)
system.cpu0.dcache.overallMissLatency::cpu0.data    703228989                       # number of overall miss ticks (Tick)
system.cpu0.dcache.overallMissLatency::total    703228989                       # number of overall miss ticks (Tick)
system.cpu0.dcache.demandAccesses::cpu0.data       108251                       # number of demand (read+write) accesses (Count)
system.cpu0.dcache.demandAccesses::total       108251                       # number of demand (read+write) accesses (Count)
system.cpu0.dcache.overallAccesses::cpu0.data       108251                       # number of overall (read+write) accesses (Count)
system.cpu0.dcache.overallAccesses::total       108251                       # number of overall (read+write) accesses (Count)
system.cpu0.dcache.demandMissRate::cpu0.data     0.126170                       # miss rate for demand accesses (Ratio)
system.cpu0.dcache.demandMissRate::total     0.126170                       # miss rate for demand accesses (Ratio)
system.cpu0.dcache.overallMissRate::cpu0.data     0.126170                       # miss rate for overall accesses (Ratio)
system.cpu0.dcache.overallMissRate::total     0.126170                       # miss rate for overall accesses (Ratio)
system.cpu0.dcache.demandAvgMissLatency::cpu0.data 51488.430883                       # average overall miss latency in ticks ((Tick/Count))
system.cpu0.dcache.demandAvgMissLatency::total 51488.430883                       # average overall miss latency in ticks ((Tick/Count))
system.cpu0.dcache.overallAvgMissLatency::cpu0.data 51488.430883                       # average overall miss latency ((Tick/Count))
system.cpu0.dcache.overallAvgMissLatency::total 51488.430883                       # average overall miss latency ((Tick/Count))
system.cpu0.dcache.blockedCycles::no_mshrs        17282                       # number of cycles access was blocked (Cycle)
system.cpu0.dcache.blockedCycles::no_targets          142                       # number of cycles access was blocked (Cycle)
system.cpu0.dcache.blockedCauses::no_mshrs          361                       # number of times access was blocked (Count)
system.cpu0.dcache.blockedCauses::no_targets            1                       # number of times access was blocked (Count)
system.cpu0.dcache.avgBlocked::no_mshrs     47.872576                       # average number of cycles each access was blocked ((Cycle/Count))
system.cpu0.dcache.avgBlocked::no_targets          142                       # average number of cycles each access was blocked ((Cycle/Count))
system.cpu0.dcache.writebacks::writebacks          616                       # number of writebacks (Count)
system.cpu0.dcache.writebacks::total              616                       # number of writebacks (Count)
system.cpu0.dcache.demandMshrHits::cpu0.data        10101                       # number of demand (read+write) MSHR hits (Count)
system.cpu0.dcache.demandMshrHits::total        10101                       # number of demand (read+write) MSHR hits (Count)
system.cpu0.dcache.overallMshrHits::cpu0.data        10101                       # number of overall MSHR hits (Count)
system.cpu0.dcache.overallMshrHits::total        10101                       # number of overall MSHR hits (Count)
system.cpu0.dcache.demandMshrMisses::cpu0.data         3557                       # number of demand (read+write) MSHR misses (Count)
system.cpu0.dcache.demandMshrMisses::total         3557                       # number of demand (read+write) MSHR misses (Count)
system.cpu0.dcache.overallMshrMisses::cpu0.data         3557                       # number of overall MSHR misses (Count)
system.cpu0.dcache.overallMshrMisses::total         3557                       # number of overall MSHR misses (Count)
system.cpu0.dcache.demandMshrMissLatency::cpu0.data    220166489                       # number of demand (read+write) MSHR miss ticks (Tick)
system.cpu0.dcache.demandMshrMissLatency::total    220166489                       # number of demand (read+write) MSHR miss ticks (Tick)
system.cpu0.dcache.overallMshrMissLatency::cpu0.data    220166489                       # number of overall MSHR miss ticks (Tick)
system.cpu0.dcache.overallMshrMissLatency::total    220166489                       # number of overall MSHR miss ticks (Tick)
system.cpu0.dcache.demandMshrMissRate::cpu0.data     0.032859                       # mshr miss ratio for demand accesses (Ratio)
system.cpu0.dcache.demandMshrMissRate::total     0.032859                       # mshr miss ratio for demand accesses (Ratio)
system.cpu0.dcache.overallMshrMissRate::cpu0.data     0.032859                       # mshr miss ratio for overall accesses (Ratio)
system.cpu0.dcache.overallMshrMissRate::total     0.032859                       # mshr miss ratio for overall accesses (Ratio)
system.cpu0.dcache.demandAvgMshrMissLatency::cpu0.data 61896.679505                       # average overall mshr miss latency ((Tick/Count))
system.cpu0.dcache.demandAvgMshrMissLatency::total 61896.679505                       # average overall mshr miss latency ((Tick/Count))
system.cpu0.dcache.overallAvgMshrMissLatency::cpu0.data 61896.679505                       # average overall mshr miss latency ((Tick/Count))
system.cpu0.dcache.overallAvgMshrMissLatency::total 61896.679505                       # average overall mshr miss latency ((Tick/Count))
system.cpu0.dcache.replacements                  3045                       # number of replacements (Count)
system.cpu0.dcache.ReadReq.hits::cpu0.data        73333                       # number of ReadReq hits (Count)
system.cpu0.dcache.ReadReq.hits::total          73333                       # number of ReadReq hits (Count)
system.cpu0.dcache.ReadReq.misses::cpu0.data        13049                       # number of ReadReq misses (Count)
system.cpu0.dcache.ReadReq.misses::total        13049                       # number of ReadReq misses (Count)
system.cpu0.dcache.ReadReq.missLatency::cpu0.data    665937500                       # number of ReadReq miss ticks (Tick)
system.cpu0.dcache.ReadReq.missLatency::total    665937500                       # number of ReadReq miss ticks (Tick)
system.cpu0.dcache.ReadReq.accesses::cpu0.data        86382                       # number of ReadReq accesses(hits+misses) (Count)
system.cpu0.dcache.ReadReq.accesses::total        86382                       # number of ReadReq accesses(hits+misses) (Count)
system.cpu0.dcache.ReadReq.missRate::cpu0.data     0.151062                       # miss rate for ReadReq accesses (Ratio)
system.cpu0.dcache.ReadReq.missRate::total     0.151062                       # miss rate for ReadReq accesses (Ratio)
system.cpu0.dcache.ReadReq.avgMissLatency::cpu0.data 51033.604108                       # average ReadReq miss latency ((Tick/Count))
system.cpu0.dcache.ReadReq.avgMissLatency::total 51033.604108                       # average ReadReq miss latency ((Tick/Count))
system.cpu0.dcache.ReadReq.mshrHits::cpu0.data        10091                       # number of ReadReq MSHR hits (Count)
system.cpu0.dcache.ReadReq.mshrHits::total        10091                       # number of ReadReq MSHR hits (Count)
system.cpu0.dcache.ReadReq.mshrMisses::cpu0.data         2958                       # number of ReadReq MSHR misses (Count)
system.cpu0.dcache.ReadReq.mshrMisses::total         2958                       # number of ReadReq MSHR misses (Count)
system.cpu0.dcache.ReadReq.mshrMissLatency::cpu0.data    183832500                       # number of ReadReq MSHR miss ticks (Tick)
system.cpu0.dcache.ReadReq.mshrMissLatency::total    183832500                       # number of ReadReq MSHR miss ticks (Tick)
system.cpu0.dcache.ReadReq.mshrMissRate::cpu0.data     0.034243                       # mshr miss rate for ReadReq accesses (Ratio)
system.cpu0.dcache.ReadReq.mshrMissRate::total     0.034243                       # mshr miss rate for ReadReq accesses (Ratio)
system.cpu0.dcache.ReadReq.avgMshrMissLatency::cpu0.data 62147.565923                       # average ReadReq mshr miss latency ((Tick/Count))
system.cpu0.dcache.ReadReq.avgMshrMissLatency::total 62147.565923                       # average ReadReq mshr miss latency ((Tick/Count))
system.cpu0.dcache.WriteReq.hits::cpu0.data        21260                       # number of WriteReq hits (Count)
system.cpu0.dcache.WriteReq.hits::total         21260                       # number of WriteReq hits (Count)
system.cpu0.dcache.WriteReq.misses::cpu0.data          609                       # number of WriteReq misses (Count)
system.cpu0.dcache.WriteReq.misses::total          609                       # number of WriteReq misses (Count)
system.cpu0.dcache.WriteReq.missLatency::cpu0.data     37291489                       # number of WriteReq miss ticks (Tick)
system.cpu0.dcache.WriteReq.missLatency::total     37291489                       # number of WriteReq miss ticks (Tick)
system.cpu0.dcache.WriteReq.accesses::cpu0.data        21869                       # number of WriteReq accesses(hits+misses) (Count)
system.cpu0.dcache.WriteReq.accesses::total        21869                       # number of WriteReq accesses(hits+misses) (Count)
system.cpu0.dcache.WriteReq.missRate::cpu0.data     0.027848                       # miss rate for WriteReq accesses (Ratio)
system.cpu0.dcache.WriteReq.missRate::total     0.027848                       # miss rate for WriteReq accesses (Ratio)
system.cpu0.dcache.WriteReq.avgMissLatency::cpu0.data 61233.972085                       # average WriteReq miss latency ((Tick/Count))
system.cpu0.dcache.WriteReq.avgMissLatency::total 61233.972085                       # average WriteReq miss latency ((Tick/Count))
system.cpu0.dcache.WriteReq.mshrHits::cpu0.data           10                       # number of WriteReq MSHR hits (Count)
system.cpu0.dcache.WriteReq.mshrHits::total           10                       # number of WriteReq MSHR hits (Count)
system.cpu0.dcache.WriteReq.mshrMisses::cpu0.data          599                       # number of WriteReq MSHR misses (Count)
system.cpu0.dcache.WriteReq.mshrMisses::total          599                       # number of WriteReq MSHR misses (Count)
system.cpu0.dcache.WriteReq.mshrMissLatency::cpu0.data     36333989                       # number of WriteReq MSHR miss ticks (Tick)
system.cpu0.dcache.WriteReq.mshrMissLatency::total     36333989                       # number of WriteReq MSHR miss ticks (Tick)
system.cpu0.dcache.WriteReq.mshrMissRate::cpu0.data     0.027390                       # mshr miss rate for WriteReq accesses (Ratio)
system.cpu0.dcache.WriteReq.mshrMissRate::total     0.027390                       # mshr miss rate for WriteReq accesses (Ratio)
system.cpu0.dcache.WriteReq.avgMshrMissLatency::cpu0.data 60657.744574                       # average WriteReq mshr miss latency ((Tick/Count))
system.cpu0.dcache.WriteReq.avgMshrMissLatency::total 60657.744574                       # average WriteReq mshr miss latency ((Tick/Count))
system.cpu0.dcache.power_state.pwrStateResidencyTicks::UNDEFINED    272862000                       # Cumulative time (in ticks) in various power states (Tick)
system.cpu0.dcache.tags.tagsInUse          461.539709                       # Average ticks per tags in use ((Tick/Count))
system.cpu0.dcache.tags.totalRefs               98150                       # Total number of references to valid blocks. (Count)
system.cpu0.dcache.tags.sampledRefs              3557                       # Sample count of references to valid blocks. (Count)
system.cpu0.dcache.tags.avgRefs             27.593478                       # Average number of references to valid blocks. ((Count/Count))
system.cpu0.dcache.tags.warmupTick             148000                       # The tick when the warmup percentage was hit. (Tick)
system.cpu0.dcache.tags.occupancies::cpu0.data   461.539709                       # Average occupied blocks per tick, per requestor ((Count/Tick))
system.cpu0.dcache.tags.avgOccs::cpu0.data     0.901445                       # Average percentage of cache occupancy ((Ratio/Tick))
system.cpu0.dcache.tags.avgOccs::total       0.901445                       # Average percentage of cache occupancy ((Ratio/Tick))
system.cpu0.dcache.tags.occupanciesTaskId::1024          512                       # Occupied blocks per task id (Count)
system.cpu0.dcache.tags.ageTaskId_1024::0           76                       # Occupied blocks per task id, per block age (Count)
system.cpu0.dcache.tags.ageTaskId_1024::1          434                       # Occupied blocks per task id, per block age (Count)
system.cpu0.dcache.tags.ageTaskId_1024::2            2                       # Occupied blocks per task id, per block age (Count)
system.cpu0.dcache.tags.ratioOccsTaskId::1024            1                       # Ratio of occupied blocks and all blocks, per task id (Ratio)
system.cpu0.dcache.tags.tagAccesses            869565                       # Number of tag accesses (Count)
system.cpu0.dcache.tags.dataAccesses           869565                       # Number of data accesses (Count)
system.cpu0.dcache.tags.power_state.pwrStateResidencyTicks::UNDEFINED    272862000                       # Cumulative time (in ticks) in various power states (Tick)
system.cpu0.decode.idleCycles                   92431                       # Number of cycles decode is idle (Cycle)
system.cpu0.decode.blockedCycles               227086                       # Number of cycles decode is blocked (Cycle)
system.cpu0.decode.runCycles                   116367                       # Number of cycles decode is running (Cycle)
system.cpu0.decode.unblockCycles                17957                       # Number of cycles decode is unblocking (Cycle)
system.cpu0.decode.squashCycles                  7788                       # Number of cycles decode is squashing (Cycle)
system.cpu0.decode.branchResolved               51737                       # Number of times decode resolved a branch (Count)
system.cpu0.decode.branchMispred                  928                       # Number of times decode detected a branch misprediction (Count)
system.cpu0.decode.decodedInsts                886101                       # Number of instructions handled by decode (Count)
system.cpu0.decode.squashedInsts                 4499                       # Number of squashed instructions handled by decode (Count)
system.cpu0.dtb_walker_cache.blockedCycles::no_mshrs            0                       # number of cycles access was blocked (Cycle)
system.cpu0.dtb_walker_cache.blockedCycles::no_targets            0                       # number of cycles access was blocked (Cycle)
system.cpu0.dtb_walker_cache.blockedCauses::no_mshrs            0                       # number of times access was blocked (Count)
system.cpu0.dtb_walker_cache.blockedCauses::no_targets            0                       # number of times access was blocked (Count)
system.cpu0.dtb_walker_cache.avgBlocked::no_mshrs          nan                       # average number of cycles each access was blocked ((Cycle/Count))
system.cpu0.dtb_walker_cache.avgBlocked::no_targets          nan                       # average number of cycles each access was blocked ((Cycle/Count))
system.cpu0.dtb_walker_cache.replacements            0                       # number of replacements (Count)
system.cpu0.dtb_walker_cache.power_state.pwrStateResidencyTicks::UNDEFINED    272862000                       # Cumulative time (in ticks) in various power states (Tick)
system.cpu0.dtb_walker_cache.tags.tagsInUse            0                       # Average ticks per tags in use ((Tick/Count))
system.cpu0.dtb_walker_cache.tags.totalRefs            0                       # Total number of references to valid blocks. (Count)
system.cpu0.dtb_walker_cache.tags.sampledRefs            0                       # Sample count of references to valid blocks. (Count)
system.cpu0.dtb_walker_cache.tags.avgRefs          nan                       # Average number of references to valid blocks. ((Count/Count))
system.cpu0.dtb_walker_cache.tags.warmupTick            0                       # The tick when the warmup percentage was hit. (Tick)
system.cpu0.dtb_walker_cache.tags.tagAccesses            0                       # Number of tag accesses (Count)
system.cpu0.dtb_walker_cache.tags.dataAccesses            0                       # Number of data accesses (Count)
system.cpu0.dtb_walker_cache.tags.power_state.pwrStateResidencyTicks::UNDEFINED    272862000                       # Cumulative time (in ticks) in various power states (Tick)
system.cpu0.fetch.icacheStallCycles            104016                       # Number of cycles fetch is stalled on an Icache miss (Cycle)
system.cpu0.fetch.insts                        505806                       # Number of instructions fetch has processed (Count)
system.cpu0.fetch.branches                     113671                       # Number of branches that fetch encountered (Count)
system.cpu0.fetch.predictedBranches             60510                       # Number of branches that fetch has predicted taken (Count)
system.cpu0.fetch.cycles                       343311                       # Number of cycles fetch has run and was not squashing or blocked (Cycle)
system.cpu0.fetch.squashCycles                  17394                       # Number of cycles fetch has spent squashing (Cycle)
system.cpu0.fetch.miscStallCycles                 741                       # Number of cycles fetch has spent waiting on interrupts, or bad addresses, or out of MSHRs (Cycle)
system.cpu0.fetch.pendingTrapStallCycles         4864                       # Number of stall cycles due to pending traps (Cycle)
system.cpu0.fetch.cacheLines                    63361                       # Number of cache lines fetched (Count)
system.cpu0.fetch.icacheSquashes                 2467                       # Number of outstanding Icache misses that were squashed (Count)
system.cpu0.fetch.nisnDist::samples            461629                       # Number of instructions fetched each cycle (Total) (Count)
system.cpu0.fetch.nisnDist::mean             2.086086                       # Number of instructions fetched each cycle (Total) (Count)
system.cpu0.fetch.nisnDist::stdev            3.206943                       # Number of instructions fetched each cycle (Total) (Count)
system.cpu0.fetch.nisnDist::underflows              0      0.00%      0.00% # Number of instructions fetched each cycle (Total) (Count)
system.cpu0.fetch.nisnDist::0                  299457     64.87%     64.87% # Number of instructions fetched each cycle (Total) (Count)
system.cpu0.fetch.nisnDist::1                   12827      2.78%     67.65% # Number of instructions fetched each cycle (Total) (Count)
system.cpu0.fetch.nisnDist::2                   11897      2.58%     70.23% # Number of instructions fetched each cycle (Total) (Count)
system.cpu0.fetch.nisnDist::3                   12315      2.67%     72.89% # Number of instructions fetched each cycle (Total) (Count)
system.cpu0.fetch.nisnDist::4                   14630      3.17%     76.06% # Number of instructions fetched each cycle (Total) (Count)
system.cpu0.fetch.nisnDist::5                    9113      1.97%     78.04% # Number of instructions fetched each cycle (Total) (Count)
system.cpu0.fetch.nisnDist::6                   10491      2.27%     80.31% # Number of instructions fetched each cycle (Total) (Count)
system.cpu0.fetch.nisnDist::7                    4791      1.04%     81.35% # Number of instructions fetched each cycle (Total) (Count)
system.cpu0.fetch.nisnDist::8                   86108     18.65%    100.00% # Number of instructions fetched each cycle (Total) (Count)
system.cpu0.fetch.nisnDist::overflows               0      0.00%    100.00% # Number of instructions fetched each cycle (Total) (Count)
system.cpu0.fetch.nisnDist::min_value               0                       # Number of instructions fetched each cycle (Total) (Count)
system.cpu0.fetch.nisnDist::max_value               8                       # Number of instructions fetched each cycle (Total) (Count)
system.cpu0.fetch.nisnDist::total              461629                       # Number of instructions fetched each cycle (Total) (Count)
system.cpu0.fetch.branchRate                 0.208294                       # Number of branch fetches per cycle (Ratio)
system.cpu0.fetch.rate                       0.926851                       # Number of inst fetches per cycle ((Count/Cycle))
system.cpu0.icache.demandHits::cpu0.inst        61482                       # number of demand (read+write) hits (Count)
system.cpu0.icache.demandHits::total            61482                       # number of demand (read+write) hits (Count)
system.cpu0.icache.overallHits::cpu0.inst        61482                       # number of overall hits (Count)
system.cpu0.icache.overallHits::total           61482                       # number of overall hits (Count)
system.cpu0.icache.demandMisses::cpu0.inst         1879                       # number of demand (read+write) misses (Count)
system.cpu0.icache.demandMisses::total           1879                       # number of demand (read+write) misses (Count)
system.cpu0.icache.overallMisses::cpu0.inst         1879                       # number of overall misses (Count)
system.cpu0.icache.overallMisses::total          1879                       # number of overall misses (Count)
system.cpu0.icache.demandMissLatency::cpu0.inst    109414000                       # number of demand (read+write) miss ticks (Tick)
system.cpu0.icache.demandMissLatency::total    109414000                       # number of demand (read+write) miss ticks (Tick)
system.cpu0.icache.overallMissLatency::cpu0.inst    109414000                       # number of overall miss ticks (Tick)
system.cpu0.icache.overallMissLatency::total    109414000                       # number of overall miss ticks (Tick)
system.cpu0.icache.demandAccesses::cpu0.inst        63361                       # number of demand (read+write) accesses (Count)
system.cpu0.icache.demandAccesses::total        63361                       # number of demand (read+write) accesses (Count)
system.cpu0.icache.overallAccesses::cpu0.inst        63361                       # number of overall (read+write) accesses (Count)
system.cpu0.icache.overallAccesses::total        63361                       # number of overall (read+write) accesses (Count)
system.cpu0.icache.demandMissRate::cpu0.inst     0.029655                       # miss rate for demand accesses (Ratio)
system.cpu0.icache.demandMissRate::total     0.029655                       # miss rate for demand accesses (Ratio)
system.cpu0.icache.overallMissRate::cpu0.inst     0.029655                       # miss rate for overall accesses (Ratio)
system.cpu0.icache.overallMissRate::total     0.029655                       # miss rate for overall accesses (Ratio)
system.cpu0.icache.demandAvgMissLatency::cpu0.inst 58229.909526                       # average overall miss latency in ticks ((Tick/Count))
system.cpu0.icache.demandAvgMissLatency::total 58229.909526                       # average overall miss latency in ticks ((Tick/Count))
system.cpu0.icache.overallAvgMissLatency::cpu0.inst 58229.909526                       # average overall miss latency ((Tick/Count))
system.cpu0.icache.overallAvgMissLatency::total 58229.909526                       # average overall miss latency ((Tick/Count))
system.cpu0.icache.blockedCycles::no_mshrs           44                       # number of cycles access was blocked (Cycle)
system.cpu0.icache.blockedCycles::no_targets            0                       # number of cycles access was blocked (Cycle)
system.cpu0.icache.blockedCauses::no_mshrs            1                       # number of times access was blocked (Count)
system.cpu0.icache.blockedCauses::no_targets            0                       # number of times access was blocked (Count)
system.cpu0.icache.avgBlocked::no_mshrs            44                       # average number of cycles each access was blocked ((Cycle/Count))
system.cpu0.icache.avgBlocked::no_targets          nan                       # average number of cycles each access was blocked ((Cycle/Count))
system.cpu0.icache.writebacks::writebacks          878                       # number of writebacks (Count)
system.cpu0.icache.writebacks::total              878                       # number of writebacks (Count)
system.cpu0.icache.demandMshrHits::cpu0.inst          488                       # number of demand (read+write) MSHR hits (Count)
system.cpu0.icache.demandMshrHits::total          488                       # number of demand (read+write) MSHR hits (Count)
system.cpu0.icache.overallMshrHits::cpu0.inst          488                       # number of overall MSHR hits (Count)
system.cpu0.icache.overallMshrHits::total          488                       # number of overall MSHR hits (Count)
system.cpu0.icache.demandMshrMisses::cpu0.inst         1391                       # number of demand (read+write) MSHR misses (Count)
system.cpu0.icache.demandMshrMisses::total         1391                       # number of demand (read+write) MSHR misses (Count)
system.cpu0.icache.overallMshrMisses::cpu0.inst         1391                       # number of overall MSHR misses (Count)
system.cpu0.icache.overallMshrMisses::total         1391                       # number of overall MSHR misses (Count)
system.cpu0.icache.demandMshrMissLatency::cpu0.inst     86903500                       # number of demand (read+write) MSHR miss ticks (Tick)
system.cpu0.icache.demandMshrMissLatency::total     86903500                       # number of demand (read+write) MSHR miss ticks (Tick)
system.cpu0.icache.overallMshrMissLatency::cpu0.inst     86903500                       # number of overall MSHR miss ticks (Tick)
system.cpu0.icache.overallMshrMissLatency::total     86903500                       # number of overall MSHR miss ticks (Tick)
system.cpu0.icache.demandMshrMissRate::cpu0.inst     0.021954                       # mshr miss ratio for demand accesses (Ratio)
system.cpu0.icache.demandMshrMissRate::total     0.021954                       # mshr miss ratio for demand accesses (Ratio)
system.cpu0.icache.overallMshrMissRate::cpu0.inst     0.021954                       # mshr miss ratio for overall accesses (Ratio)
system.cpu0.icache.overallMshrMissRate::total     0.021954                       # mshr miss ratio for overall accesses (Ratio)
system.cpu0.icache.demandAvgMshrMissLatency::cpu0.inst 62475.557153                       # average overall mshr miss latency ((Tick/Count))
system.cpu0.icache.demandAvgMshrMissLatency::total 62475.557153                       # average overall mshr miss latency ((Tick/Count))
system.cpu0.icache.overallAvgMshrMissLatency::cpu0.inst 62475.557153                       # average overall mshr miss latency ((Tick/Count))
system.cpu0.icache.overallAvgMshrMissLatency::total 62475.557153                       # average overall mshr miss latency ((Tick/Count))
system.cpu0.icache.replacements                   878                       # number of replacements (Count)
system.cpu0.icache.ReadReq.hits::cpu0.inst        61482                       # number of ReadReq hits (Count)
system.cpu0.icache.ReadReq.hits::total          61482                       # number of ReadReq hits (Count)
system.cpu0.icache.ReadReq.misses::cpu0.inst         1879                       # number of ReadReq misses (Count)
system.cpu0.icache.ReadReq.misses::total         1879                       # number of ReadReq misses (Count)
system.cpu0.icache.ReadReq.missLatency::cpu0.inst    109414000                       # number of ReadReq miss ticks (Tick)
system.cpu0.icache.ReadReq.missLatency::total    109414000                       # number of ReadReq miss ticks (Tick)
system.cpu0.icache.ReadReq.accesses::cpu0.inst        63361                       # number of ReadReq accesses(hits+misses) (Count)
system.cpu0.icache.ReadReq.accesses::total        63361                       # number of ReadReq accesses(hits+misses) (Count)
system.cpu0.icache.ReadReq.missRate::cpu0.inst     0.029655                       # miss rate for ReadReq accesses (Ratio)
system.cpu0.icache.ReadReq.missRate::total     0.029655                       # miss rate for ReadReq accesses (Ratio)
system.cpu0.icache.ReadReq.avgMissLatency::cpu0.inst 58229.909526                       # average ReadReq miss latency ((Tick/Count))
system.cpu0.icache.ReadReq.avgMissLatency::total 58229.909526                       # average ReadReq miss latency ((Tick/Count))
system.cpu0.icache.ReadReq.mshrHits::cpu0.inst          488                       # number of ReadReq MSHR hits (Count)
system.cpu0.icache.ReadReq.mshrHits::total          488                       # number of ReadReq MSHR hits (Count)
system.cpu0.icache.ReadReq.mshrMisses::cpu0.inst         1391                       # number of ReadReq MSHR misses (Count)
system.cpu0.icache.ReadReq.mshrMisses::total         1391                       # number of ReadReq MSHR misses (Count)
system.cpu0.icache.ReadReq.mshrMissLatency::cpu0.inst     86903500                       # number of ReadReq MSHR miss ticks (Tick)
system.cpu0.icache.ReadReq.mshrMissLatency::total     86903500                       # number of ReadReq MSHR miss ticks (Tick)
system.cpu0.icache.ReadReq.mshrMissRate::cpu0.inst     0.021954                       # mshr miss rate for ReadReq accesses (Ratio)
system.cpu0.icache.ReadReq.mshrMissRate::total     0.021954                       # mshr miss rate for ReadReq accesses (Ratio)
system.cpu0.icache.ReadReq.avgMshrMissLatency::cpu0.inst 62475.557153                       # average ReadReq mshr miss latency ((Tick/Count))
system.cpu0.icache.ReadReq.avgMshrMissLatency::total 62475.557153                       # average ReadReq mshr miss latency ((Tick/Count))
system.cpu0.icache.power_state.pwrStateResidencyTicks::UNDEFINED    272862000                       # Cumulative time (in ticks) in various power states (Tick)
system.cpu0.icache.tags.tagsInUse          474.201289                       # Average ticks per tags in use ((Tick/Count))
system.cpu0.icache.tags.totalRefs               62872                       # Total number of references to valid blocks. (Count)
system.cpu0.icache.tags.sampledRefs              1390                       # Sample count of references to valid blocks. (Count)
system.cpu0.icache.tags.avgRefs             45.231655                       # Average number of references to valid blocks. ((Count/Count))
system.cpu0.icache.tags.warmupTick              77000                       # The tick when the warmup percentage was hit. (Tick)
system.cpu0.icache.tags.occupancies::cpu0.inst   474.201289                       # Average occupied blocks per tick, per requestor ((Count/Tick))
system.cpu0.icache.tags.avgOccs::cpu0.inst     0.926174                       # Average percentage of cache occupancy ((Ratio/Tick))
system.cpu0.icache.tags.avgOccs::total       0.926174                       # Average percentage of cache occupancy ((Ratio/Tick))
system.cpu0.icache.tags.occupanciesTaskId::1024          512                       # Occupied blocks per task id (Count)
system.cpu0.icache.tags.ageTaskId_1024::0          148                       # Occupied blocks per task id, per block age (Count)
system.cpu0.icache.tags.ageTaskId_1024::1          222                       # Occupied blocks per task id, per block age (Count)
system.cpu0.icache.tags.ageTaskId_1024::2          142                       # Occupied blocks per task id, per block age (Count)
system.cpu0.icache.tags.ratioOccsTaskId::1024            1                       # Ratio of occupied blocks and all blocks, per task id (Ratio)
system.cpu0.icache.tags.tagAccesses            508278                       # Number of tag accesses (Count)
system.cpu0.icache.tags.dataAccesses           508278                       # Number of data accesses (Count)
system.cpu0.icache.tags.power_state.pwrStateResidencyTicks::UNDEFINED    272862000                       # Cumulative time (in ticks) in various power states (Tick)
system.cpu0.iew.idleCycles                          0                       # Number of cycles IEW is idle (Cycle)
system.cpu0.iew.squashCycles                     7788                       # Number of cycles IEW is squashing (Cycle)
system.cpu0.iew.blockCycles                    111963                       # Number of cycles IEW is blocking (Cycle)
system.cpu0.iew.unblockCycles                    6161                       # Number of cycles IEW is unblocking (Cycle)
system.cpu0.iew.dispatchedInsts                807345                       # Number of instructions dispatched to IQ (Count)
system.cpu0.iew.dispSquashedInsts                 625                       # Number of squashed instructions skipped by dispatch (Count)
system.cpu0.iew.dispLoadInsts                  108584                       # Number of dispatched load instructions (Count)
system.cpu0.iew.dispStoreInsts                  33829                       # Number of dispatched store instructions (Count)
system.cpu0.iew.dispNonSpecInsts                  125                       # Number of dispatched non-speculative instructions (Count)
system.cpu0.iew.iqFullEvents                      742                       # Number of times the IQ has become full, causing a stall (Count)
system.cpu0.iew.lsqFullEvents                    4851                       # Number of times the LSQ has become full, causing a stall (Count)
system.cpu0.iew.memOrderViolationEvents           122                       # Number of memory order violations (Count)
system.cpu0.iew.predictedTakenIncorrect          2899                       # Number of branches that were predicted taken incorrectly (Count)
system.cpu0.iew.predictedNotTakenIncorrect         5563                       # Number of branches that were predicted not taken incorrectly (Count)
system.cpu0.iew.branchMispredicts                8462                       # Number of branch mispredicts detected at execute (Count)
system.cpu0.iew.instsToCommit                  670484                       # Cumulative count of insts sent to commit (Count)
system.cpu0.iew.writebackCount                 666175                       # Cumulative count of insts written-back (Count)
system.cpu0.iew.producerInst                   518575                       # Number of instructions producing a value (Count)
system.cpu0.iew.consumerInst                   910921                       # Number of instructions consuming a value (Count)
system.cpu0.iew.wbRate                       1.220716                       # Insts written-back per cycle ((Count/Cycle))
system.cpu0.iew.wbFanout                     0.569286                       # Average fanout of values written-back ((Count/Count))
system.cpu0.interrupts.clk_domain.clock          8000                       # Clock period in ticks (Tick)
system.cpu0.itb_walker_cache.blockedCycles::no_mshrs            0                       # number of cycles access was blocked (Cycle)
system.cpu0.itb_walker_cache.blockedCycles::no_targets            0                       # number of cycles access was blocked (Cycle)
system.cpu0.itb_walker_cache.blockedCauses::no_mshrs            0                       # number of times access was blocked (Count)
system.cpu0.itb_walker_cache.blockedCauses::no_targets            0                       # number of times access was blocked (Count)
system.cpu0.itb_walker_cache.avgBlocked::no_mshrs          nan                       # average number of cycles each access was blocked ((Cycle/Count))
system.cpu0.itb_walker_cache.avgBlocked::no_targets          nan                       # average number of cycles each access was blocked ((Cycle/Count))
system.cpu0.itb_walker_cache.replacements            0                       # number of replacements (Count)
system.cpu0.itb_walker_cache.power_state.pwrStateResidencyTicks::UNDEFINED    272862000                       # Cumulative time (in ticks) in various power states (Tick)
system.cpu0.itb_walker_cache.tags.tagsInUse            0                       # Average ticks per tags in use ((Tick/Count))
system.cpu0.itb_walker_cache.tags.totalRefs            0                       # Total number of references to valid blocks. (Count)
system.cpu0.itb_walker_cache.tags.sampledRefs            0                       # Sample count of references to valid blocks. (Count)
system.cpu0.itb_walker_cache.tags.avgRefs          nan                       # Average number of references to valid blocks. ((Count/Count))
system.cpu0.itb_walker_cache.tags.warmupTick            0                       # The tick when the warmup percentage was hit. (Tick)
system.cpu0.itb_walker_cache.tags.tagAccesses            0                       # Number of tag accesses (Count)
system.cpu0.itb_walker_cache.tags.dataAccesses            0                       # Number of data accesses (Count)
system.cpu0.itb_walker_cache.tags.power_state.pwrStateResidencyTicks::UNDEFINED    272862000                       # Cumulative time (in ticks) in various power states (Tick)
system.cpu0.lsq0.forwLoads                       6224                       # Number of loads that had data forwarded from stores (Count)
system.cpu0.lsq0.squashedLoads                  46888                       # Number of loads squashed (Count)
system.cpu0.lsq0.ignoredResponses                  60                       # Number of memory responses ignored because the instruction is squashed (Count)
system.cpu0.lsq0.memOrderViolation                122                       # Number of memory ordering violations (Count)
system.cpu0.lsq0.squashedStores                 11970                       # Number of stores squashed (Count)
system.cpu0.lsq0.rescheduledLoads                   3                       # Number of loads that were rescheduled (Count)
system.cpu0.lsq0.blockedByCache                   334                       # Number of times an access to memory failed due to the cache being blocked (Count)
system.cpu0.lsq0.loadToUse::samples             61696                       # Distribution of cycle latency between the first time a load is issued and its completion (Unspecified)
system.cpu0.lsq0.loadToUse::mean            16.889960                       # Distribution of cycle latency between the first time a load is issued and its completion (Unspecified)
system.cpu0.lsq0.loadToUse::stdev           47.166161                       # Distribution of cycle latency between the first time a load is issued and its completion (Unspecified)
system.cpu0.lsq0.loadToUse::0-9                 54307     88.02%     88.02% # Distribution of cycle latency between the first time a load is issued and its completion (Unspecified)
system.cpu0.lsq0.loadToUse::10-19                 303      0.49%     88.51% # Distribution of cycle latency between the first time a load is issued and its completion (Unspecified)
system.cpu0.lsq0.loadToUse::20-29                 199      0.32%     88.84% # Distribution of cycle latency between the first time a load is issued and its completion (Unspecified)
system.cpu0.lsq0.loadToUse::30-39                 170      0.28%     89.11% # Distribution of cycle latency between the first time a load is issued and its completion (Unspecified)
system.cpu0.lsq0.loadToUse::40-49                 152      0.25%     89.36% # Distribution of cycle latency between the first time a load is issued and its completion (Unspecified)
system.cpu0.lsq0.loadToUse::50-59                 146      0.24%     89.60% # Distribution of cycle latency between the first time a load is issued and its completion (Unspecified)
system.cpu0.lsq0.loadToUse::60-69                 238      0.39%     89.98% # Distribution of cycle latency between the first time a load is issued and its completion (Unspecified)
[...]
system.mem_ctrls.dram.perBankRdBursts::4          462                       # Per bank write bursts (Count)
system.mem_ctrls.dram.perBankRdBursts::5          401                       # Per bank write bursts (Count)
system.mem_ctrls.dram.perBankRdBursts::6          343                       # Per bank write bursts (Count)
system.mem_ctrls.dram.perBankRdBursts::7          250                       # Per bank write bursts (Count)
system.mem_ctrls.dram.perBankRdBursts::8          240                       # Per bank write bursts (Count)
system.mem_ctrls.dram.perBankRdBursts::9          212                       # Per bank write bursts (Count)
system.mem_ctrls.dram.perBankRdBursts::10          201                       # Per bank write bursts (Count)
system.mem_ctrls.dram.perBankRdBursts::11          282                       # Per bank write bursts (Count)
system.mem_ctrls.dram.perBankRdBursts::12          174                       # Per bank write bursts (Count)
system.mem_ctrls.dram.perBankRdBursts::13          364                       # Per bank write bursts (Count)
system.mem_ctrls.dram.perBankRdBursts::14          338                       # Per bank write bursts (Count)
system.mem_ctrls.dram.perBankRdBursts::15          110                       # Per bank write bursts (Count)
system.mem_ctrls.dram.perBankWrBursts::0           77                       # Per bank write bursts (Count)
system.mem_ctrls.dram.perBankWrBursts::1           69                       # Per bank write bursts (Count)
system.mem_ctrls.dram.perBankWrBursts::2           67                       # Per bank write bursts (Count)
system.mem_ctrls.dram.perBankWrBursts::3          173                       # Per bank write bursts (Count)
system.mem_ctrls.dram.perBankWrBursts::4          196                       # Per bank write bursts (Count)
system.mem_ctrls.dram.perBankWrBursts::5          130                       # Per bank write bursts (Count)
system.mem_ctrls.dram.perBankWrBursts::6          164                       # Per bank write bursts (Count)
system.mem_ctrls.dram.perBankWrBursts::7          139                       # Per bank write bursts (Count)
system.mem_ctrls.dram.perBankWrBursts::8           79                       # Per bank write bursts (Count)
system.mem_ctrls.dram.perBankWrBursts::9           59                       # Per bank write bursts (Count)
system.mem_ctrls.dram.perBankWrBursts::10           56                       # Per bank write bursts (Count)
system.mem_ctrls.dram.perBankWrBursts::11           45                       # Per bank write bursts (Count)
system.mem_ctrls.dram.perBankWrBursts::12           17                       # Per bank write bursts (Count)
system.mem_ctrls.dram.perBankWrBursts::13           77                       # Per bank write bursts (Count)
system.mem_ctrls.dram.perBankWrBursts::14           87                       # Per bank write bursts (Count)
system.mem_ctrls.dram.perBankWrBursts::15           29                       # Per bank write bursts (Count)
system.mem_ctrls.dram.totQLat                56662500                       # Total ticks spent queuing (Tick)
system.mem_ctrls.dram.totBusLat              24640000                       # Total ticks spent in databus transfers (Tick)
system.mem_ctrls.dram.totMemAccLat          149062500                       # Total ticks spent from burst creation until serviced by the DRAM (Tick)
system.mem_ctrls.dram.avgQLat                11498.07                       # Average queueing delay per DRAM burst ((Tick/Count))
system.mem_ctrls.dram.avgBusLat               5000.00                       # Average bus latency per DRAM burst ((Tick/Count))
system.mem_ctrls.dram.avgMemAccLat           30248.07                       # Average memory access latency per DRAM burst ((Tick/Count))
system.mem_ctrls.dram.readRowHits                3958                       # Number of row buffer hits during reads (Count)
system.mem_ctrls.dram.writeRowHits               1114                       # Number of row buffer hits during writes (Count)
system.mem_ctrls.dram.readRowHitRate            80.32                       # Row buffer hit rate for reads (Ratio)
system.mem_ctrls.dram.writeRowHitRate           76.09                       # Row buffer hit rate for writes (Ratio)
system.mem_ctrls.dram.bytesPerActivate::samples         1319                       # Bytes accessed per row activation (Byte)
system.mem_ctrls.dram.bytesPerActivate::mean   310.053071                       # Bytes accessed per row activation (Byte)
system.mem_ctrls.dram.bytesPerActivate::gmean   189.724184                       # Bytes accessed per row activation (Byte)
system.mem_ctrls.dram.bytesPerActivate::stdev   317.959571                       # Bytes accessed per row activation (Byte)
system.mem_ctrls.dram.bytesPerActivate::0-127          437     33.13%     33.13% # Bytes accessed per row activation (Byte)
system.mem_ctrls.dram.bytesPerActivate::128-255          345     26.16%     59.29% # Bytes accessed per row activation (Byte)
system.mem_ctrls.dram.bytesPerActivate::256-383          150     11.37%     70.66% # Bytes accessed per row activation (Byte)
system.mem_ctrls.dram.bytesPerActivate::384-511           97      7.35%     78.01% # Bytes accessed per row activation (Byte)
system.mem_ctrls.dram.bytesPerActivate::512-639           56      4.25%     82.26% # Bytes accessed per row activation (Byte)
system.mem_ctrls.dram.bytesPerActivate::640-767           43      3.26%     85.52% # Bytes accessed per row activation (Byte)
system.mem_ctrls.dram.bytesPerActivate::768-895           24      1.82%     87.34% # Bytes accessed per row activation (Byte)
system.mem_ctrls.dram.bytesPerActivate::896-1023           24      1.82%     89.16% # Bytes accessed per row activation (Byte)
system.mem_ctrls.dram.bytesPerActivate::1024-1151          143     10.84%    100.00% # Bytes accessed per row activation (Byte)
system.mem_ctrls.dram.bytesPerActivate::total         1319                       # Bytes accessed per row activation (Byte)
system.mem_ctrls.dram.bytesRead                315392                       # Total bytes read (Byte)
system.mem_ctrls.dram.bytesWritten              93696                       # Total bytes written (Byte)
system.mem_ctrls.dram.avgRdBW             1155.866335                       # Average DRAM read bandwidth in MiBytes/s ((Byte/Second))
system.mem_ctrls.dram.avgWrBW              343.382369                       # Average DRAM write bandwidth in MiBytes/s ((Byte/Second))
system.mem_ctrls.dram.peakBW                 12800.00                       # Theoretical peak bandwidth in MiByte/s ((Byte/Second))
system.mem_ctrls.dram.busUtil                   11.71                       # Data bus utilization in percentage (Ratio)
system.mem_ctrls.dram.busUtilRead                9.03                       # Data bus utilization in percentage for reads (Ratio)
system.mem_ctrls.dram.busUtilWrite               2.68                       # Data bus utilization in percentage for writes (Ratio)
system.mem_ctrls.dram.pageHitRate               79.35                       # Row buffer hit rate, read and write combined (Ratio)
system.mem_ctrls.dram.power_state.pwrStateResidencyTicks::UNDEFINED    272862000                       # Cumulative time (in ticks) in various power states (Tick)
system.mem_ctrls.dram.rank0.actEnergy         6019020                       # Energy for activate commands per rank (pJ) (Joule)
system.mem_ctrls.dram.rank0.preEnergy         3195390                       # Energy for precharge commands per rank (pJ) (Joule)
system.mem_ctrls.dram.rank0.readEnergy       21469980                       # Energy for read commands per rank (pJ) (Joule)
system.mem_ctrls.dram.rank0.writeEnergy       5298300                       # Energy for write commands per rank (pJ) (Joule)
system.mem_ctrls.dram.rank0.refreshEnergy 21512400.000000                       # Energy for refresh commands per rank (pJ) (Joule)
system.mem_ctrls.dram.rank0.actBackEnergy    116293680                       # Energy for active background per rank (pJ) (Joule)
system.mem_ctrls.dram.rank0.preBackEnergy      6847680                       # Energy for precharge background per rank (pJ) (Joule)
system.mem_ctrls.dram.rank0.actPowerDownEnergy            0                       # Energy for active power-down per rank (pJ) (Joule)
system.mem_ctrls.dram.rank0.prePowerDownEnergy            0                       # Energy for precharge power-down per rank (pJ) (Joule)
system.mem_ctrls.dram.rank0.selfRefreshEnergy            0                       # Energy for self refresh per rank (pJ) (Joule)
system.mem_ctrls.dram.rank0.totalEnergy     180636450                       # Total energy per rank (pJ) (Joule)
system.mem_ctrls.dram.rank0.averagePower   662.006619                       # Core power per rank (mW) (Watt)
system.mem_ctrls.dram.rank0.totalIdleTime            0                       # Total Idle time Per DRAM Rank (Tick)
system.mem_ctrls.dram.rank0.pwrStateTime::IDLE     16585000                       # Time in different power states (Tick)
system.mem_ctrls.dram.rank0.pwrStateTime::REF      9100000                       # Time in different power states (Tick)
system.mem_ctrls.dram.rank0.pwrStateTime::SREF            0                       # Time in different power states (Tick)
system.mem_ctrls.dram.rank0.pwrStateTime::PRE_PDN            0                       # Time in different power states (Tick)
system.mem_ctrls.dram.rank0.pwrStateTime::ACT    247177000                       # Time in different power states (Tick)
system.mem_ctrls.dram.rank0.pwrStateTime::ACT_PDN            0                       # Time in different power states (Tick)
system.mem_ctrls.dram.rank1.actEnergy         3405780                       # Energy for activate commands per rank (pJ) (Joule)
system.mem_ctrls.dram.rank1.preEnergy         1810215                       # Energy for precharge commands per rank (pJ) (Joule)
system.mem_ctrls.dram.rank1.readEnergy       13715940                       # Energy for read commands per rank (pJ) (Joule)
system.mem_ctrls.dram.rank1.writeEnergy       2343780                       # Energy for write commands per rank (pJ) (Joule)
system.mem_ctrls.dram.rank1.refreshEnergy 21512400.000000                       # Energy for refresh commands per rank (pJ) (Joule)
system.mem_ctrls.dram.rank1.actBackEnergy    118866090                       # Energy for active background per rank (pJ) (Joule)
system.mem_ctrls.dram.rank1.preBackEnergy      4681440                       # Energy for precharge background per rank (pJ) (Joule)
system.mem_ctrls.dram.rank1.actPowerDownEnergy            0                       # Energy for active power-down per rank (pJ) (Joule)
system.mem_ctrls.dram.rank1.prePowerDownEnergy            0                       # Energy for precharge power-down per rank (pJ) (Joule)
system.mem_ctrls.dram.rank1.selfRefreshEnergy            0                       # Energy for self refresh per rank (pJ) (Joule)
system.mem_ctrls.dram.rank1.totalEnergy     166335645                       # Total energy per rank (pJ) (Joule)
system.mem_ctrls.dram.rank1.averagePower   609.596224                       # Core power per rank (mW) (Watt)
system.mem_ctrls.dram.rank1.totalIdleTime            0                       # Total Idle time Per DRAM Rank (Tick)
system.mem_ctrls.dram.rank1.pwrStateTime::IDLE     11209000                       # Time in different power states (Tick)
system.mem_ctrls.dram.rank1.pwrStateTime::REF      9100000                       # Time in different power states (Tick)
system.mem_ctrls.dram.rank1.pwrStateTime::SREF            0                       # Time in different power states (Tick)
system.mem_ctrls.dram.rank1.pwrStateTime::PRE_PDN            0                       # Time in different power states (Tick)
system.mem_ctrls.dram.rank1.pwrStateTime::ACT    252553000                       # Time in different power states (Tick)
system.mem_ctrls.dram.rank1.pwrStateTime::ACT_PDN            0                       # Time in different power states (Tick)
system.mem_ctrls.power_state.pwrStateResidencyTicks::UNDEFINED    272862000                       # Cumulative time (in ticks) in various power states (Tick)
system.membus.transDist::ReadResp                4347                       # Transaction distribution (Count)
system.membus.transDist::WritebackDirty           616                       # Transaction distribution (Count)
system.membus.transDist::WritebackClean           878                       # Transaction distribution (Count)
system.membus.transDist::CleanEvict              2429                       # Transaction distribution (Count)
system.membus.transDist::ReadExReq                600                       # Transaction distribution (Count)
system.membus.transDist::ReadExResp               600                       # Transaction distribution (Count)
system.membus.transDist::ReadCleanReq            1391                       # Transaction distribution (Count)
system.membus.transDist::ReadSharedReq           2957                       # Transaction distribution (Count)
system.membus.pktCount_system.cpu0.icache.mem_side_port::system.mem_ctrls.port         3659                       # Packet count per connected requestor and responder (Count)
system.membus.pktCount_system.cpu0.icache.mem_side_port::total         3659                       # Packet count per connected requestor and responder (Count)
system.membus.pktCount_system.cpu0.dcache.mem_side_port::system.mem_ctrls.port        10159                       # Packet count per connected requestor and responder (Count)
system.membus.pktCount_system.cpu0.dcache.mem_side_port::total        10159                       # Packet count per connected requestor and responder (Count)
system.membus.pktCount::total                   13818                       # Packet count per connected requestor and responder (Count)
system.membus.pktSize_system.cpu0.icache.mem_side_port::system.mem_ctrls.port       145152                       # Cumulative packet size per connected requestor and responder (Byte)
system.membus.pktSize_system.cpu0.icache.mem_side_port::total       145152                       # Cumulative packet size per connected requestor and responder (Byte)
system.membus.pktSize_system.cpu0.dcache.mem_side_port::system.mem_ctrls.port       267072                       # Cumulative packet size per connected requestor and responder (Byte)
system.membus.pktSize_system.cpu0.dcache.mem_side_port::total       267072                       # Cumulative packet size per connected requestor and responder (Byte)
system.membus.pktSize::total                   412224                       # Cumulative packet size per connected requestor and responder (Byte)
system.membus.snoops                                0                       # Total snoops (Count)
system.membus.snoopTraffic                          0                       # Total snoop traffic (Byte)
system.membus.snoopFanout::samples               4948                       # Request fanout histogram (Count)
system.membus.snoopFanout::mean              0.001011                       # Request fanout histogram (Count)
system.membus.snoopFanout::stdev             0.031776                       # Request fanout histogram (Count)
system.membus.snoopFanout::underflows               0      0.00%      0.00% # Request fanout histogram (Count)
system.membus.snoopFanout::0                     4943     99.90%     99.90% # Request fanout histogram (Count)
system.membus.snoopFanout::1                        5      0.10%    100.00% # Request fanout histogram (Count)
system.membus.snoopFanout::2                        0      0.00%    100.00% # Request fanout histogram (Count)
system.membus.snoopFanout::3                        0      0.00%    100.00% # Request fanout histogram (Count)
system.membus.snoopFanout::4                        0      0.00%    100.00% # Request fanout histogram (Count)
system.membus.snoopFanout::5                        0      0.00%    100.00% # Request fanout histogram (Count)
system.membus.snoopFanout::6                        0      0.00%    100.00% # Request fanout histogram (Count)
system.membus.snoopFanout::7                        0      0.00%    100.00% # Request fanout histogram (Count)
system.membus.snoopFanout::8                        0      0.00%    100.00% # Request fanout histogram (Count)
system.membus.snoopFanout::9                        0      0.00%    100.00% # Request fanout histogram (Count)
system.membus.snoopFanout::10                       0      0.00%    100.00% # Request fanout histogram (Count)
system.membus.snoopFanout::11                       0      0.00%    100.00% # Request fanout histogram (Count)
system.membus.snoopFanout::12                       0      0.00%    100.00% # Request fanout histogram (Count)
system.membus.snoopFanout::13                       0      0.00%    100.00% # Request fanout histogram (Count)
system.membus.snoopFanout::14                       0      0.00%    100.00% # Request fanout histogram (Count)
system.membus.snoopFanout::15                       0      0.00%    100.00% # Request fanout histogram (Count)
system.membus.snoopFanout::16                       0      0.00%    100.00% # Request fanout histogram (Count)
system.membus.snoopFanout::overflows                0      0.00%    100.00% # Request fanout histogram (Count)
system.membus.snoopFanout::min_value                0                       # Request fanout histogram (Count)
system.membus.snoopFanout::max_value                1                       # Request fanout histogram (Count)
system.membus.snoopFanout::total                 4948                       # Request fanout histogram (Count)
system.membus.power_state.pwrStateResidencyTicks::UNDEFINED    272862000                       # Cumulative time (in ticks) in various power states (Tick)
system.membus.reqLayer8.occupancy            15689500                       # Layer occupancy (ticks) (Tick)
system.membus.reqLayer8.utilization               0.1                       # Layer utilization (Ratio)
system.membus.respLayer1.occupancy            7383000                       # Layer occupancy (ticks) (Tick)
system.membus.respLayer1.utilization              0.0                       # Layer utilization (Ratio)
system.membus.respLayer2.occupancy           18889500                       # Layer occupancy (ticks) (Tick)
system.membus.respLayer2.utilization              0.1                       # Layer utilization (Ratio)
system.membus.snoop_filter.totRequests           8871                       # Total number of requests made to the snoop filter. (Count)
system.membus.snoop_filter.hitSingleRequests         3923                       # Number of requests hitting in the snoop filter with a single holder of the requested data. (Count)
system.membus.snoop_filter.hitMultiRequests            5                       # Number of requests hitting in the snoop filter with multiple (>1) holders of the requested data. (Count)
system.membus.snoop_filter.totSnoops                0                       # Total number of snoops made to the snoop filter. (Count)
system.membus.snoop_filter.hitSingleSnoops            0                       # Number of snoops hitting in the snoop filter with a single holder of the requested data. (Count)
system.membus.snoop_filter.hitMultiSnoops            0                       # Number of snoops hitting in the snoop filter with multiple (>1) holders of the requested data. (Count)
system.voltage_domain.voltage                       1                       # Voltage in Volts (Volt)
system.workload.inst.arm                            0                       # number of arm instructions executed (Count)
system.workload.inst.quiesce                        0                       # number of quiesce instructions executed (Count)

---------- End Simulation Statistics   ----------
