
---------- Begin Simulation Statistics ----------
simSeconds                                   0.272970                       # Number of seconds simulated (Second)
simTicks                                 272970356000                       # Number of ticks simulated (Tick)
finalTick                                272970356000                       # Number of ticks from beginning of simulation (restored from checkpoints and never reset) (Tick)
simFreq                                  1000000000000                       # The number of ticks per simulated second ((Tick/Second))
hostSeconds                                   6551.81                       # Real time elapsed on the host (Second)
hostTickRate                                 41663346                       # The number of ticks simulated per host second (ticks/s) ((Tick/Second))
hostMemory                                    8827628                       # Number of bytes of host memory used (Byte)
simInsts                                   1000000001                       # Number of instructions simulated (Count)
simOps                                     1985598238                       # Number of ops (including micro ops) simulated (Count)
hostInstRate                                   152630                       # Simulator instruction rate (inst/s) ((Count/Second))
hostOpRate                                     303061                       # Simulator op (including micro ops) rate (op/s) ((Count/Second))
system.clk_domain.clock                          1000                       # Clock period in ticks (Tick)
system.cpu0.numCycles                       545940713                       # Number of cpu cycles simulated (Cycle)
system.cpu0.numWorkItemsStarted                     0                       # Number of work items this cpu started (Count)
system.cpu0.numWorkItemsCompleted                   0                       # Number of work items this cpu completed (Count)
system.cpu0.instsAdded                     2031981828                       # Number of instructions added to the IQ (excludes non-spec) (Count)
system.cpu0.nonSpecInstsAdded                  400056                       # Number of non-speculative instructions added to the IQ (Count)
system.cpu0.instsIssued                    2010486489                       # Number of instructions issued (Count)
system.cpu0.squashedInstsIssued                439611                       # Number of squashed instructions issued (Count)
system.cpu0.squashedInstsExamined            46783618                       # Number of squashed instructions iterated over during squash; mainly for profiling (Count)
system.cpu0.squashedOperandsExamined        105088753                       # Number of squashed operands that are examined and possibly removed from graph (Count)
system.cpu0.squashedNonSpecRemoved             166421                       # Number of squashed non-spec instructions that were removed (Count)
system.cpu0.numIssuedDist::samples          545148607                       # Number of insts issued each cycle (Count)
system.cpu0.numIssuedDist::mean              3.687960                       # Number of insts issued each cycle (Count)
system.cpu0.numIssuedDist::stdev             2.176220                       # Number of insts issued each cycle (Count)
system.cpu0.numIssuedDist::underflows               0      0.00%      0.00% # Number of insts issued each cycle (Count)
system.cpu0.numIssuedDist::0                 45142491      8.28%      8.28% # Number of insts issued each cycle (Count)
system.cpu0.numIssuedDist::1                 58273904     10.69%     18.97% # Number of insts issued each cycle (Count)
system.cpu0.numIssuedDist::2                 73702816     13.52%     32.49% # Number of insts issued each cycle (Count)
system.cpu0.numIssuedDist::3                 74107125     13.59%     46.08% # Number of insts issued each cycle (Count)
system.cpu0.numIssuedDist::4                 94571242     17.35%     63.43% # Number of insts issued each cycle (Count)
system.cpu0.numIssuedDist::5                 73174209     13.42%     76.85% # Number of insts issued each cycle (Count)
system.cpu0.numIssuedDist::6                 62397541     11.45%     88.30% # Number of insts issued each cycle (Count)
system.cpu0.numIssuedDist::7                 46289913      8.49%     96.79% # Number of insts issued each cycle (Count)
system.cpu0.numIssuedDist::8                 17489366      3.21%    100.00% # Number of insts issued each cycle (Count)
system.cpu0.numIssuedDist::overflows                0      0.00%    100.00% # Number of insts issued each cycle (Count)
system.cpu0.numIssuedDist::min_value                0                       # Number of insts issued each cycle (Count)
system.cpu0.numIssuedDist::max_value                8                       # Number of insts issued each cycle (Count)
system.cpu0.numIssuedDist::total            545148607                       # Number of insts issued each cycle (Count)
system.cpu0.statFuBusy::No_OpClass                  0      0.00%      0.00% # attempts to use FU when none available (Count)
system.cpu0.statFuBusy::IntAlu               30728734     85.11%     85.11% # attempts to use FU when none available (Count)
system.cpu0.statFuBusy::IntMult                     0      0.00%     85.11% # attempts to use FU when none available (Count)
system.cpu0.statFuBusy::IntDiv                      0      0.00%     85.11% # attempts to use FU when none available (Count)
system.cpu0.statFuBusy::FloatAdd                    0      0.00%     85.11% # attempts to use FU when none available (Count)
system.cpu0.statFuBusy::FloatCmp                    0      0.00%     85.11% # attempts to use FU when none available (Count)
system.cpu0.statFuBusy::FloatCvt                    4      0.00%     85.11% # attempts to use FU when none available (Count)
system.cpu0.statFuBusy::FloatMult                   0      0.00%     85.11% # attempts to use FU when none available (Count)
system.cpu0.statFuBusy::FloatMultAcc                0      0.00%     85.11% # attempts to use FU when none available (Count)
system.cpu0.statFuBusy::FloatDiv                    0      0.00%     85.11% # attempts to use FU when none available (Count)
system.cpu0.statFuBusy::FloatMisc                   0      0.00%     85.11% # attempts to use FU when none available (Count)
system.cpu0.statFuBusy::FloatSqrt                   0      0.00%     85.11% # attempts to use FU when none available (Count)
system.cpu0.statFuBusy::SimdAdd                     0      0.00%     85.11% # attempts to use FU when none available (Count)
system.cpu0.statFuBusy::SimdAddAcc                  0      0.00%     85.11% # attempts to use FU when none available (Count)
system.cpu0.statFuBusy::SimdAlu                    44      0.00%     85.11% # attempts to use FU when none available (Count)
system.cpu0.statFuBusy::SimdCmp                     0      0.00%     85.11% # attempts to use FU when none available (Count)
system.cpu0.statFuBusy::SimdCvt                    10      0.00%     85.11% # attempts to use FU when none available (Count)
system.cpu0.statFuBusy::SimdMisc                    1      0.00%     85.11% # attempts to use FU when none available (Count)
system.cpu0.statFuBusy::SimdMult                    0      0.00%     85.11% # attempts to use FU when none available (Count)
system.cpu0.statFuBusy::SimdMultAcc                 0      0.00%     85.11% # attempts to use FU when none available (Count)
system.cpu0.statFuBusy::SimdShift                   4      0.00%     85.11% # attempts to use FU when none available (Count)
system.cpu0.statFuBusy::SimdShiftAcc                0      0.00%     85.11% # attempts to use FU when none available (Count)
system.cpu0.statFuBusy::SimdDiv                     0      0.00%     85.11% # attempts to use FU when none available (Count)
system.cpu0.statFuBusy::SimdSqrt                    0      0.00%     85.11% # attempts to use FU when none available (Count)
system.cpu0.statFuBusy::SimdFloatAdd                0      0.00%     85.11% # attempts to use FU when none available (Count)
system.cpu0.statFuBusy::SimdFloatAlu                0      0.00%     85.11% # attempts to use FU when none available (Count)
system.cpu0.statFuBusy::SimdFloatCmp                0      0.00%     85.11% # attempts to use FU when none available (Count)
system.cpu0.statFuBusy::SimdFloatCvt                0      0.00%     85.11% # attempts to use FU when none available (Count)
system.cpu0.statFuBusy::SimdFloatDiv                0      0.00%     85.11% # attempts to use FU when none available (Count)
system.cpu0.statFuBusy::SimdFloatMisc               0      0.00%     85.11% # attempts to use FU when none available (Count)
system.cpu0.statFuBusy::SimdFloatMult               0      0.00%     85.11% # attempts to use FU when none available (Count)
system.cpu0.statFuBusy::SimdFloatMultAcc            0      0.00%     85.11% # attempts to use FU when none available (Count)
system.cpu0.statFuBusy::SimdFloatSqrt               0      0.00%     85.11% # attempts to use FU when none available (Count)
system.cpu0.statFuBusy::SimdReduceAdd               0      0.00%     85.11% # attempts to use FU when none available (Count)
system.cpu0.statFuBusy::SimdReduceAlu               0      0.00%     85.11% # attempts to use FU when none available (Count)
system.cpu0.statFuBusy::SimdReduceCmp               0      0.00%     85.11% # attempts to use FU when none available (Count)
system.cpu0.statFuBusy::SimdFloatReduceAdd            0      0.00%     85.11% # attempts to use FU when none available (Count)
system.cpu0.statFuBusy::SimdFloatReduceCmp            0      0.00%     85.11% # attempts to use FU when none available (Count)
system.cpu0.statFuBusy::SimdAes                     0      0.00%     85.11% # attempts to use FU when none available (Count)
system.cpu0.statFuBusy::SimdAesMix                  0      0.00%     85.11% # attempts to use FU when none available (Count)
system.cpu0.statFuBusy::SimdSha1Hash                0      0.00%     85.11% # attempts to use FU when none available (Count)
system.cpu0.statFuBusy::SimdSha1Hash2               0      0.00%     85.11% # attempts to use FU when none available (Count)
system.cpu0.statFuBusy::SimdSha256Hash              0      0.00%     85.11% # attempts to use FU when none available (Count)
system.cpu0.statFuBusy::SimdSha256Hash2             0      0.00%     85.11% # attempts to use FU when none available (Count)
system.cpu0.statFuBusy::SimdShaSigma2               0      0.00%     85.11% # attempts to use FU when none available (Count)
system.cpu0.statFuBusy::SimdShaSigma3               0      0.00%     85.11% # attempts to use FU when none available (Count)
system.cpu0.statFuBusy::SimdPredAlu                 0      0.00%     85.11% # attempts to use FU when none available (Count)
system.cpu0.statFuBusy::MemRead               1842912      5.10%     90.21% # attempts to use FU when none available (Count)
system.cpu0.statFuBusy::MemWrite               303934      0.84%     91.05% # attempts to use FU when none available (Count)
system.cpu0.statFuBusy::FloatMemRead              663      0.00%     91.06% # attempts to use FU when none available (Count)
system.cpu0.statFuBusy::FloatMemWrite         3229382      8.94%    100.00% # attempts to use FU when none available (Count)
system.cpu0.statFuBusy::IprAccess                   0      0.00%    100.00% # attempts to use FU when none available (Count)
system.cpu0.statFuBusy::InstPrefetch                0      0.00%    100.00% # attempts to use FU when none available (Count)
system.cpu0.statIssuedInstType_0::No_OpClass      1469008      0.07%      0.07% # Number of instructions issued per FU type, per thread (Count)
system.cpu0.statIssuedInstType_0::IntAlu   1550589751     77.13%     77.20% # Number of instructions issued per FU type, per thread (Count)
system.cpu0.statIssuedInstType_0::IntMult      2111537      0.11%     77.30% # Number of instructions issued per FU type, per thread (Count)
system.cpu0.statIssuedInstType_0::IntDiv     13145559      0.65%     77.96% # Number of instructions issued per FU type, per thread (Count)
system.cpu0.statIssuedInstType_0::FloatAdd       801940      0.04%     78.00% # Number of instructions issued per FU type, per thread (Count)
system.cpu0.statIssuedInstType_0::FloatCmp            0      0.00%     78.00% # Number of instructions issued per FU type, per thread (Count)
system.cpu0.statIssuedInstType_0::FloatCvt         1597      0.00%     78.00% # Number of instructions issued per FU type, per thread (Count)
system.cpu0.statIssuedInstType_0::FloatMult            0      0.00%     78.00% # Number of instructions issued per FU type, per thread (Count)
system.cpu0.statIssuedInstType_0::FloatMultAcc            0      0.00%     78.00% # Number of instructions issued per FU type, per thread (Count)
system.cpu0.statIssuedInstType_0::FloatDiv            0      0.00%     78.00% # Number of instructions issued per FU type, per thread (Count)
system.cpu0.statIssuedInstType_0::FloatMisc            0      0.00%     78.00% # Number of instructions issued per FU type, per thread (Count)
system.cpu0.statIssuedInstType_0::FloatSqrt            0      0.00%     78.00% # Number of instructions issued per FU type, per thread (Count)
system.cpu0.statIssuedInstType_0::SimdAdd           40      0.00%     78.00% # Number of instructions issued per FU type, per thread (Count)
system.cpu0.statIssuedInstType_0::SimdAddAcc            0      0.00%     78.00% # Number of instructions issued per FU type, per thread (Count)
system.cpu0.statIssuedInstType_0::SimdAlu       117630      0.01%     78.00% # Number of instructions issued per FU type, per thread (Count)
system.cpu0.statIssuedInstType_0::SimdCmp            0      0.00%     78.00% # Number of instructions issued per FU type, per thread (Count)
system.cpu0.statIssuedInstType_0::SimdCvt       116914      0.01%     78.01% # Number of instructions issued per FU type, per thread (Count)
system.cpu0.statIssuedInstType_0::SimdMisc      4675403      0.23%     78.24% # Number of instructions issued per FU type, per thread (Count)
system.cpu0.statIssuedInstType_0::SimdMult            0      0.00%     78.24% # Number of instructions issued per FU type, per thread (Count)
system.cpu0.statIssuedInstType_0::SimdMultAcc            0      0.00%     78.24% # Number of instructions issued per FU type, per thread (Count)
system.cpu0.statIssuedInstType_0::SimdShift           74      0.00%     78.24% # Number of instructions issued per FU type, per thread (Count)
system.cpu0.statIssuedInstType_0::SimdShiftAcc            0      0.00%     78.24% # Number of instructions issued per FU type, per thread (Count)
system.cpu0.statIssuedInstType_0::SimdDiv            0      0.00%     78.24% # Number of instructions issued per FU type, per thread (Count)
system.cpu0.statIssuedInstType_0::SimdSqrt            0      0.00%     78.24% # Number of instructions issued per FU type, per thread (Count)
system.cpu0.statIssuedInstType_0::SimdFloatAdd           40      0.00%     78.24% # Number of instructions issued per FU type, per thread (Count)
system.cpu0.statIssuedInstType_0::SimdFloatAlu            0      0.00%     78.24% # Number of instructions issued per FU type, per thread (Count)
system.cpu0.statIssuedInstType_0::SimdFloatCmp            0      0.00%     78.24% # Number of instructions issued per FU type, per thread (Count)
system.cpu0.statIssuedInstType_0::SimdFloatCvt        60953      0.00%     78.24% # Number of instructions issued per FU type, per thread (Count)
system.cpu0.statIssuedInstType_0::SimdFloatDiv           72      0.00%     78.24% # Number of instructions issued per FU type, per thread (Count)
system.cpu0.statIssuedInstType_0::SimdFloatMisc            0      0.00%     78.24% # Number of instructions issued per FU type, per thread (Count)
system.cpu0.statIssuedInstType_0::SimdFloatMult          607      0.00%     78.24% # Number of instructions issued per FU type, per thread (Count)
system.cpu0.statIssuedInstType_0::SimdFloatMultAcc            0      0.00%     78.24% # Number of instructions issued per FU type, per thread (Count)
system.cpu0.statIssuedInstType_0::SimdFloatSqrt            2      0.00%     78.24% # Number of instructions issued per FU type, per thread (Count)
system.cpu0.statIssuedInstType_0::SimdReduceAdd            0      0.00%     78.24% # Number of instructions issued per FU type, per thread (Count)
system.cpu0.statIssuedInstType_0::SimdReduceAlu            0      0.00%     78.24% # Number of instructions issued per FU type, per thread (Count)
system.cpu0.statIssuedInstType_0::SimdReduceCmp            0      0.00%     78.24% # Number of instructions issued per FU type, per thread (Count)
system.cpu0.statIssuedInstType_0::SimdFloatReduceAdd            0      0.00%     78.24% # Number of instructions issued per FU type, per thread (Count)
system.cpu0.statIssuedInstType_0::SimdFloatReduceCmp            0      0.00%     78.24% # Number of instructions issued per FU type, per thread (Count)
system.cpu0.statIssuedInstType_0::SimdAes            0      0.00%     78.24% # Number of instructions issued per FU type, per thread (Count)
system.cpu0.statIssuedInstType_0::SimdAesMix            0      0.00%     78.24% # Number of instructions issued per FU type, per thread (Count)
system.cpu0.statIssuedInstType_0::SimdSha1Hash            0      0.00%     78.24% # Number of instructions issued per FU type, per thread (Count)
system.cpu0.statIssuedInstType_0::SimdSha1Hash2            0      0.00%     78.24% # Number of instructions issued per FU type, per thread (Count)
system.cpu0.statIssuedInstType_0::SimdSha256Hash            0      0.00%     78.24% # Number of instructions issued per FU type, per thread (Count)
system.cpu0.statIssuedInstType_0::SimdSha256Hash2            0      0.00%     78.24% # Number of instructions issued per FU type, per thread (Count)
system.cpu0.statIssuedInstType_0::SimdShaSigma2            0      0.00%     78.24% # Number of instructions issued per FU type, per thread (Count)
system.cpu0.statIssuedInstType_0::SimdShaSigma3            0      0.00%     78.24% # Number of instructions issued per FU type, per thread (Count)
system.cpu0.statIssuedInstType_0::SimdPredAlu            0      0.00%     78.24% # Number of instructions issued per FU type, per thread (Count)
system.cpu0.statIssuedInstType_0::MemRead    247172307     12.29%     90.54% # Number of instructions issued per FU type, per thread (Count)
system.cpu0.statIssuedInstType_0::MemWrite    158594109      7.89%     98.43% # Number of instructions issued per FU type, per thread (Count)
system.cpu0.statIssuedInstType_0::FloatMemRead       239691      0.01%     98.44% # Number of instructions issued per FU type, per thread (Count)
system.cpu0.statIssuedInstType_0::FloatMemWrite     31389255      1.56%    100.00% # Number of instructions issued per FU type, per thread (Count)
system.cpu0.statIssuedInstType_0::IprAccess            0      0.00%    100.00% # Number of instructions issued per FU type, per thread (Count)
system.cpu0.statIssuedInstType_0::InstPrefetch            0      0.00%    100.00% # Number of instructions issued per FU type, per thread (Count)
system.cpu0.statIssuedInstType_0::total    2010486489                       # Number of instructions issued per FU type, per thread (Count)
system.cpu0.issueRate                        3.682610                       # Inst issue rate ((Count/Cycle))
system.cpu0.fuBusy                           36105688                       # FU busy when requested (Count)
system.cpu0.fuBusyRate                       0.017959                       # FU busy rate (busy events/executed inst) ((Count/Count))
system.cpu0.intInstQueueReads              4523324668                       # Number of integer instruction queue reads (Count)
system.cpu0.intInstQueueWrites             2041035311                       # Number of integer instruction queue writes (Count)
system.cpu0.intInstQueueWakeupAccesses     1968685960                       # Number of integer instruction queue wakeup accesses (Count)
system.cpu0.fpInstQueueReads                 79342212                       # Number of floating instruction queue reads (Count)
system.cpu0.fpInstQueueWrites                38139627                       # Number of floating instruction queue writes (Count)
system.cpu0.fpInstQueueWakeupAccesses        38026702                       # Number of floating instruction queue wakeup accesses (Count)
system.cpu0.vecInstQueueReads                       0                       # Number of vector instruction queue reads (Count)
system.cpu0.vecInstQueueWrites                      0                       # Number of vector instruction queue writes (Count)
system.cpu0.vecInstQueueWakeupAccesses              0                       # Number of vector instruction queue wakeup accesses (Count)
system.cpu0.intAluAccesses                 2003837017                       # Number of integer alu accesses (Count)
system.cpu0.fpAluAccesses                    41286152                       # Number of floating point alu accesses (Count)
system.cpu0.vecAluAccesses                          0                       # Number of vector alu accesses (Count)
system.cpu0.numInsts                       2007586748                       # Number of executed instructions (Count)
system.cpu0.numLoadInsts                    247075987                       # Number of load instructions executed (Count)
system.cpu0.numSquashedInsts                  2899737                       # Number of squashed instructions skipped in execute (Count)
system.cpu0.numSwp                                  0                       # Number of swp insts executed (Count)
system.cpu0.numNop                                  0                       # Number of nop insts executed (Count)
system.cpu0.numRefs                         436715671                       # Number of memory reference insts executed (Count)
system.cpu0.numBranches                     239206343                       # Number of branches executed (Count)
system.cpu0.numStoreInsts                   189639684                       # Number of stores executed (Count)
system.cpu0.numRate                          3.677298                       # Inst execution rate ((Count/Cycle))
system.cpu0.timesIdled                          22872                       # Number of times that the entire CPU went into an idle state and unscheduled itself (Count)
system.cpu0.idleCycles                         792106                       # Total number of cycles that the CPU has spent unscheduled due to idling (Cycle)
system.cpu0.committedInsts                 1000000001                       # Number of Instructions Simulated (Count)
system.cpu0.committedOps                   1985598238                       # Number of Ops (including micro ops) Simulated (Count)
system.cpu0.cpi                              0.545941                       # CPI: Cycles Per Instruction ((Cycle/Count))
system.cpu0.totalCpi                         0.545941                       # CPI: Total CPI of All Threads ((Cycle/Count))
system.cpu0.ipc                              1.831701                       # IPC: Instructions Per Cycle ((Count/Cycle))
system.cpu0.totalIpc                         1.831701                       # IPC: Total IPC of All Threads ((Count/Cycle))
system.cpu0.intRegfileReads                2612346020                       # Number of integer regfile reads (Count)
system.cpu0.intRegfileWrites               1446079299                       # Number of integer regfile writes (Count)
system.cpu0.fpRegfileReads                   43289574                       # Number of floating regfile reads (Count)
system.cpu0.fpRegfileWrites                   6521907                       # Number of floating regfile writes (Count)
system.cpu0.ccRegfileReads                 1034544950                       # number of cc regfile reads (Count)
system.cpu0.ccRegfileWrites                 605683947                       # number of cc regfile writes (Count)
system.cpu0.miscRegfileReads                887526416                       # number of misc regfile reads (Count)
system.cpu0.miscRegfileWrites                  233005                       # number of misc regfile writes (Count)
system.cpu0.MemDepUnit__0.insertedLoads     248263649                       # Number of loads inserted to the mem dependence unit. (Count)
system.cpu0.MemDepUnit__0.insertedStores    193974243                       # Number of stores inserted to the mem dependence unit. (Count)
system.cpu0.MemDepUnit__0.conflictingLoads      8765839                       # Number of conflicting loads. (Count)
system.cpu0.MemDepUnit__0.conflictingStores      4255421                       # Number of conflicting stores. (Count)
system.cpu0.MemDepUnit__1.insertedLoads             0                       # Number of loads inserted to the mem dependence unit. (Count)
system.cpu0.MemDepUnit__1.insertedStores            0                       # Number of stores inserted to the mem dependence unit. (Count)
system.cpu0.MemDepUnit__1.conflictingLoads            0                       # Number of conflicting loads. (Count)
system.cpu0.MemDepUnit__1.conflictingStores            0                       # Number of conflicting stores. (Count)
system.cpu0.MemDepUnit__2.insertedLoads             0                       # Number of loads inserted to the mem dependence unit. (Count)
system.cpu0.MemDepUnit__2.insertedStores            0                       # Number of stores inserted to the mem dependence unit. (Count)
system.cpu0.MemDepUnit__2.conflictingLoads            0                       # Number of conflicting loads. (Count)
system.cpu0.MemDepUnit__2.conflictingStores            0                       # Number of conflicting stores. (Count)
system.cpu0.MemDepUnit__3.insertedLoads             0                       # Number of loads inserted to the mem dependence unit. (Count)
system.cpu0.MemDepUnit__3.insertedStores            0                       # Number of stores inserted to the mem dependence unit. (Count)
system.cpu0.MemDepUnit__3.conflictingLoads            0                       # Number of conflicting loads. (Count)
system.cpu0.MemDepUnit__3.conflictingStores            0                       # Number of conflicting stores. (Count)
system.cpu0.branchPred.lookups              249779992                       # Number of BP lookups (Count)
system.cpu0.branchPred.condPredicted        166855139                       # Number of conditional branches predicted (Count)
system.cpu0.branchPred.condIncorrect          1637912                       # Number of conditional branches incorrect (Count)
system.cpu0.branchPred.BTBLookups           111550022                       # Number of BTB lookups (Count)
system.cpu0.branchPred.BTBHits              110911041                       # Number of BTB hits (Count)
system.cpu0.branchPred.BTBHitRatio           0.994272                       # BTB Hit Ratio (Ratio)
system.cpu0.branchPred.RASUsed               29118036                       # Number of times the RAS was used to get a target. (Count)
system.cpu0.branchPred.RASIncorrect                30                       # Number of incorrect RAS predictions. (Count)
system.cpu0.branchPred.indirectLookups       18156175                       # Number of indirect predictor lookups. (Count)
system.cpu0.branchPred.indirectHits          18120662                       # Number of indirect target hits. (Count)
system.cpu0.branchPred.indirectMisses           35513                       # Number of indirect misses. (Count)
system.cpu0.branchPred.indirectMispredicted       123549                       # Number of mispredicted indirect branches. (Count)
system.cpu0.commit.commitSquashedInsts       46716327                       # The number of squashed insts skipped by commit (Count)
system.cpu0.commit.commitNonSpecStalls         233635                       # The number of times commit has been forced to stall to communicate backwards (Count)
system.cpu0.commit.branchMispredicts          1413737                       # The number of times a branch was mispredicted (Count)
system.cpu0.commit.numCommittedDist::samples    538688160                       # Number of insts commited each cycle (Count)
system.cpu0.commit.numCommittedDist::mean     3.685988                       # Number of insts commited each cycle (Count)
system.cpu0.commit.numCommittedDist::stdev     2.911556                       # Number of insts commited each cycle (Count)
system.cpu0.commit.numCommittedDist::underflows            0      0.00%      0.00% # Number of insts commited each cycle (Count)
system.cpu0.commit.numCommittedDist::0       65378494     12.14%     12.14% # Number of insts commited each cycle (Count)
system.cpu0.commit.numCommittedDist::1      109989477     20.42%     32.55% # Number of insts commited each cycle (Count)
system.cpu0.commit.numCommittedDist::2       54399040     10.10%     42.65% # Number of insts commited each cycle (Count)
system.cpu0.commit.numCommittedDist::3       90971889     16.89%     59.54% # Number of insts commited each cycle (Count)
system.cpu0.commit.numCommittedDist::4       31443575      5.84%     65.38% # Number of insts commited each cycle (Count)
system.cpu0.commit.numCommittedDist::5       20673024      3.84%     69.22% # Number of insts commited each cycle (Count)
system.cpu0.commit.numCommittedDist::6       17237389      3.20%     72.42% # Number of insts commited each cycle (Count)
system.cpu0.commit.numCommittedDist::7       27430916      5.09%     77.51% # Number of insts commited each cycle (Count)
system.cpu0.commit.numCommittedDist::8      121164356     22.49%    100.00% # Number of insts commited each cycle (Count)
system.cpu0.commit.numCommittedDist::overflows            0      0.00%    100.00% # Number of insts commited each cycle (Count)
system.cpu0.commit.numCommittedDist::min_value            0                       # Number of insts commited each cycle (Count)
system.cpu0.commit.numCommittedDist::max_value            8                       # Number of insts commited each cycle (Count)
system.cpu0.commit.numCommittedDist::total    538688160                       # Number of insts commited each cycle (Count)
system.cpu0.commit.instsCommitted          1000000001                       # Number of instructions committed (Count)
system.cpu0.commit.opsCommitted            1985598238                       # Number of ops (including micro ops) committed (Count)
system.cpu0.commit.memRefs                  433205583                       # Number of memory references committed (Count)
system.cpu0.commit.loads                    244292484                       # Number of loads committed (Count)
system.cpu0.commit.amos                             0                       # Number of atomic instructions committed (Count)
system.cpu0.commit.membars                        420                       # Number of memory barriers committed (Count)
system.cpu0.commit.branches                 237031863                       # Number of branches committed (Count)
system.cpu0.commit.vectorInstructions               0                       # Number of committed Vector instructions. (Count)
system.cpu0.commit.floating                  38009687                       # Number of committed floating point instructions. (Count)
system.cpu0.commit.integer                 1968829242                       # Number of committed integer instructions. (Count)
system.cpu0.commit.functionCalls             28312236                       # Number of function calls committed. (Count)
system.cpu0.commit.committedInstType_0::No_OpClass      1439171      0.07%      0.07% # Class of committed instruction (Count)
system.cpu0.commit.committedInstType_0::IntAlu   1530114267     77.06%     77.13% # Class of committed instruction (Count)
system.cpu0.commit.committedInstType_0::IntMult      2100092      0.11%     77.24% # Class of committed instruction (Count)
system.cpu0.commit.committedInstType_0::IntDiv     13001755      0.65%     77.89% # Class of committed instruction (Count)
system.cpu0.commit.committedInstType_0::FloatAdd       768183      0.04%     77.93% # Class of committed instruction (Count)
system.cpu0.commit.committedInstType_0::FloatCmp            0      0.00%     77.93% # Class of committed instruction (Count)
system.cpu0.commit.committedInstType_0::FloatCvt         1040      0.00%     77.93% # Class of committed instruction (Count)
system.cpu0.commit.committedInstType_0::FloatMult            0      0.00%     77.93% # Class of committed instruction (Count)
system.cpu0.commit.committedInstType_0::FloatMultAcc            0      0.00%     77.93% # Class of committed instruction (Count)
system.cpu0.commit.committedInstType_0::FloatDiv            0      0.00%     77.93% # Class of committed instruction (Count)
system.cpu0.commit.committedInstType_0::FloatMisc            0      0.00%     77.93% # Class of committed instruction (Count)
system.cpu0.commit.committedInstType_0::FloatSqrt            0      0.00%     77.93% # Class of committed instruction (Count)
system.cpu0.commit.committedInstType_0::SimdAdd           32      0.00%     77.93% # Class of committed instruction (Count)
system.cpu0.commit.committedInstType_0::SimdAddAcc            0      0.00%     77.93% # Class of committed instruction (Count)
system.cpu0.commit.committedInstType_0::SimdAlu       117305      0.01%     77.94% # Class of committed instruction (Count)
system.cpu0.commit.committedInstType_0::SimdCmp            0      0.00%     77.94% # Class of committed instruction (Count)
system.cpu0.commit.committedInstType_0::SimdCvt       116778      0.01%     77.94% # Class of committed instruction (Count)
system.cpu0.commit.committedInstType_0::SimdMisc      4675289      0.24%     78.18% # Class of committed instruction (Count)
system.cpu0.commit.committedInstType_0::SimdMult            0      0.00%     78.18% # Class of committed instruction (Count)
system.cpu0.commit.committedInstType_0::SimdMultAcc            0      0.00%     78.18% # Class of committed instruction (Count)
system.cpu0.commit.committedInstType_0::SimdShift           24      0.00%     78.18% # Class of committed instruction (Count)
system.cpu0.commit.committedInstType_0::SimdShiftAcc            0      0.00%     78.18% # Class of committed instruction (Count)
system.cpu0.commit.committedInstType_0::SimdDiv            0      0.00%     78.18% # Class of committed instruction (Count)
system.cpu0.commit.committedInstType_0::SimdSqrt            0      0.00%     78.18% # Class of committed instruction (Count)
system.cpu0.commit.committedInstType_0::SimdFloatAdd           28      0.00%     78.18% # Class of committed instruction (Count)
system.cpu0.commit.committedInstType_0::SimdFloatAlu            0      0.00%     78.18% # Class of committed instruction (Count)
system.cpu0.commit.committedInstType_0::SimdFloatCmp            0      0.00%     78.18% # Class of committed instruction (Count)
system.cpu0.commit.committedInstType_0::SimdFloatCvt        58209      0.00%     78.18% # Class of committed instruction (Count)
system.cpu0.commit.committedInstType_0::SimdFloatDiv           53      0.00%     78.18% # Class of committed instruction (Count)
system.cpu0.commit.committedInstType_0::SimdFloatMisc            0      0.00%     78.18% # Class of committed instruction (Count)
system.cpu0.commit.committedInstType_0::SimdFloatMult          427      0.00%     78.18% # Class of committed instruction (Count)
system.cpu0.commit.committedInstType_0::SimdFloatMultAcc            0      0.00%     78.18% # Class of committed instruction (Count)
system.cpu0.commit.committedInstType_0::SimdFloatSqrt            2      0.00%     78.18% # Class of committed instruction (Count)
system.cpu0.commit.committedInstType_0::SimdReduceAdd            0      0.00%     78.18% # Class of committed instruction (Count)
system.cpu0.commit.committedInstType_0::SimdReduceAlu            0      0.00%     78.18% # Class of committed instruction (Count)
system.cpu0.commit.committedInstType_0::SimdReduceCmp            0      0.00%     78.18% # Class of committed instruction (Count)
system.cpu0.commit.committedInstType_0::SimdFloatReduceAdd            0      0.00%     78.18% # Class of committed instruction (Count)
system.cpu0.commit.committedInstType_0::SimdFloatReduceCmp            0      0.00%     78.18% # Class of committed instruction (Count)
system.cpu0.commit.committedInstType_0::SimdAes            0      0.00%     78.18% # Class of committed instruction (Count)
system.cpu0.commit.committedInstType_0::SimdAesMix            0      0.00%     78.18% # Class of committed instruction (Count)
system.cpu0.commit.committedInstType_0::SimdSha1Hash            0      0.00%     78.18% # Class of committed instruction (Count)
system.cpu0.commit.committedInstType_0::SimdSha1Hash2            0      0.00%     78.18% # Class of committed instruction (Count)
system.cpu0.commit.committedInstType_0::SimdSha256Hash            0      0.00%     78.18% # Class of committed instruction (Count)
system.cpu0.commit.committedInstType_0::SimdSha256Hash2            0      0.00%     78.18% # Class of committed instruction (Count)
system.cpu0.commit.committedInstType_0::SimdShaSigma2            0      0.00%     78.18% # Class of committed instruction (Count)
system.cpu0.commit.committedInstType_0::SimdShaSigma3            0      0.00%     78.18% # Class of committed instruction (Count)
system.cpu0.commit.committedInstType_0::SimdPredAlu            0      0.00%     78.18% # Class of committed instruction (Count)
system.cpu0.commit.committedInstType_0::MemRead    244057081     12.29%     90.47% # Class of committed instruction (Count)
system.cpu0.commit.committedInstType_0::MemWrite    157527826      7.93%     98.41% # Class of committed instruction (Count)
system.cpu0.commit.committedInstType_0::FloatMemRead       235403      0.01%     98.42% # Class of committed instruction (Count)
system.cpu0.commit.committedInstType_0::FloatMemWrite     31385273      1.58%    100.00% # Class of committed instruction (Count)
system.cpu0.commit.committedInstType_0::IprAccess            0      0.00%    100.00% # Class of committed instruction (Count)
system.cpu0.commit.committedInstType_0::InstPrefetch            0      0.00%    100.00% # Class of committed instruction (Count)
system.cpu0.commit.committedInstType_0::total   1985598238                       # Class of committed instruction (Count)
system.cpu0.commit.commitEligibleSamples    121164356                       # number cycles where commit BW limit reached (Cycle)
system.cpu0.dcache.demandHits::cpu0.data    385624680                       # number of demand (read+write) hits (Count)
system.cpu0.dcache.demandHits::total        385624680                       # number of demand (read+write) hits (Count)
system.cpu0.dcache.overallHits::cpu0.data    385624680                       # number of overall hits (Count)
system.cpu0.dcache.overallHits::total       385624680                       # number of overall hits (Count)
system.cpu0.dcache.demandMisses::cpu0.data       168790                       # number of demand (read+write) misses (Count)
system.cpu0.dcache.demandMisses::total         168790                       # number of demand (read+write) misses (Count)
system.cpu0.dcache.overallMisses::cpu0.data       168790                       # number of overall misses (Count)
system.cpu0.dcache.overallMisses::total        168790                       # number of overall misses (Count)
system.cpu0.dcache.demandMissLatency::cpu0.data   8707698481                       # number of demand (read+write) miss ticks (Tick)
system.cpu0.dcache.demandMissLatency::total   8707698481                       # number of demand (read+write) miss ticks (Tick)
system.cpu0.dcache.overallMissLatency::cpu0.data   8707698481                       # number of overall miss ticks (Tick)
system.cpu0.dcache.overallMissLatency::total   8707698481                       # number of overall miss ticks (Tick)
system.cpu0.dcache.demandAccesses::cpu0.data    385793470                       # number of demand (read+write) accesses (Count)
system.cpu0.dcache.demandAccesses::total    385793470                       # number of demand (read+write) accesses (Count)
system.cpu0.dcache.overallAccesses::cpu0.data    385793470                       # number of overall (read+write) accesses (Count)
system.cpu0.dcache.overallAccesses::total    385793470                       # number of overall (read+write) accesses (Count)
system.cpu0.dcache.demandMissRate::cpu0.data     0.000438                       # miss rate for demand accesses (Ratio)
system.cpu0.dcache.demandMissRate::total     0.000438                       # miss rate for demand accesses (Ratio)
system.cpu0.dcache.overallMissRate::cpu0.data     0.000438                       # miss rate for overall accesses (Ratio)
system.cpu0.dcache.overallMissRate::total     0.000438                       # miss rate for overall accesses (Ratio)
system.cpu0.dcache.demandAvgMissLatency::cpu0.data 51588.947692                       # average overall miss latency in ticks ((Tick/Count))
system.cpu0.dcache.demandAvgMissLatency::total 51588.947692                       # average overall miss latency in ticks ((Tick/Count))
system.cpu0.dcache.overallAvgMissLatency::cpu0.data 51588.947692                       # average overall miss latency ((Tick/Count))
system.cpu0.dcache.overallAvgMissLatency::total 51588.947692                       # average overall miss latency ((Tick/Count))
system.cpu0.dcache.blockedCycles::no_mshrs        25465                       # number of cycles access was blocked (Cycle)
system.cpu0.dcache.blockedCycles::no_targets          686                       # number of cycles access was blocked (Cycle)
system.cpu0.dcache.blockedCauses::no_mshrs          513                       # number of times access was blocked (Count)
system.cpu0.dcache.blockedCauses::no_targets            6                       # number of times access was blocked (Count)
system.cpu0.dcache.avgBlocked::no_mshrs     49.639376                       # average number of cycles each access was blocked ((Cycle/Count))
system.cpu0.dcache.avgBlocked::no_targets   114.333333                       # average number of cycles each access was blocked ((Cycle/Count))
system.cpu0.dcache.writebacks::writebacks        83390                       # number of writebacks (Count)
system.cpu0.dcache.writebacks::total            83390                       # number of writebacks (Count)
system.cpu0.dcache.demandMshrHits::cpu0.data        64590                       # number of demand (read+write) MSHR hits (Count)
system.cpu0.dcache.demandMshrHits::total        64590                       # number of demand (read+write) MSHR hits (Count)
system.cpu0.dcache.overallMshrHits::cpu0.data        64590                       # number of overall MSHR hits (Count)
system.cpu0.dcache.overallMshrHits::total        64590                       # number of overall MSHR hits (Count)
system.cpu0.dcache.demandMshrMisses::cpu0.data       104200                       # number of demand (read+write) MSHR misses (Count)
system.cpu0.dcache.demandMshrMisses::total       104200                       # number of demand (read+write) MSHR misses (Count)
system.cpu0.dcache.overallMshrMisses::cpu0.data       104200                       # number of overall MSHR misses (Count)
system.cpu0.dcache.overallMshrMisses::total       104200                       # number of overall MSHR misses (Count)
system.cpu0.dcache.demandMshrMissLatency::cpu0.data   6119476481                       # number of demand (read+write) MSHR miss ticks (Tick)
system.cpu0.dcache.demandMshrMissLatency::total   6119476481                       # number of demand (read+write) MSHR miss ticks (Tick)
system.cpu0.dcache.overallMshrMissLatency::cpu0.data   6119476481                       # number of overall MSHR miss ticks (Tick)
system.cpu0.dcache.overallMshrMissLatency::total   6119476481                       # number of overall MSHR miss ticks (Tick)
system.cpu0.dcache.demandMshrMissRate::cpu0.data     0.000270                       # mshr miss ratio for demand accesses (Ratio)
system.cpu0.dcache.demandMshrMissRate::total     0.000270                       # mshr miss ratio for demand accesses (Ratio)
system.cpu0.dcache.overallMshrMissRate::cpu0.data     0.000270                       # mshr miss ratio for overall accesses (Ratio)
system.cpu0.dcache.overallMshrMissRate::total     0.000270                       # mshr miss ratio for overall accesses (Ratio)
system.cpu0.dcache.demandAvgMshrMissLatency::cpu0.data 58728.181200                       # average overall mshr miss latency ((Tick/Count))
system.cpu0.dcache.demandAvgMshrMissLatency::total 58728.181200                       # average overall mshr miss latency ((Tick/Count))
system.cpu0.dcache.overallAvgMshrMissLatency::cpu0.data 58728.181200                       # average overall mshr miss latency ((Tick/Count))
system.cpu0.dcache.overallAvgMshrMissLatency::total 58728.181200                       # average overall mshr miss latency ((Tick/Count))
system.cpu0.dcache.replacements                103682                       # number of replacements (Count)
system.cpu0.dcache.LockedRMWReadReq.hits::cpu0.data          210                       # number of LockedRMWReadReq hits (Count)
system.cpu0.dcache.LockedRMWReadReq.hits::total          210                       # number of LockedRMWReadReq hits (Count)
system.cpu0.dcache.LockedRMWReadReq.accesses::cpu0.data          210                       # number of LockedRMWReadReq accesses(hits+misses) (Count)
system.cpu0.dcache.LockedRMWReadReq.accesses::total          210                       # number of LockedRMWReadReq accesses(hits+misses) (Count)
system.cpu0.dcache.LockedRMWReadReq.mshrMissLatency::cpu0.data       630000                       # number of LockedRMWReadReq MSHR miss ticks (Tick)
system.cpu0.dcache.LockedRMWReadReq.mshrMissLatency::total       630000                       # number of LockedRMWReadReq MSHR miss ticks (Tick)
system.cpu0.dcache.LockedRMWReadReq.avgMshrMissLatency::cpu0.data          inf                       # average LockedRMWReadReq mshr miss latency ((Tick/Count))
system.cpu0.dcache.LockedRMWReadReq.avgMshrMissLatency::total          inf                       # average LockedRMWReadReq mshr miss latency ((Tick/Count))
system.cpu0.dcache.LockedRMWWriteReq.hits::cpu0.data          210                       # number of LockedRMWWriteReq hits (Count)
system.cpu0.dcache.LockedRMWWriteReq.hits::total          210                       # number of LockedRMWWriteReq hits (Count)
system.cpu0.dcache.LockedRMWWriteReq.accesses::cpu0.data          210                       # number of LockedRMWWriteReq accesses(hits+misses) (Count)
system.cpu0.dcache.LockedRMWWriteReq.accesses::total          210                       # number of LockedRMWWriteReq accesses(hits+misses) (Count)
system.cpu0.dcache.ReadReq.hits::cpu0.data    196795077                       # number of ReadReq hits (Count)
system.cpu0.dcache.ReadReq.hits::total      196795077                       # number of ReadReq hits (Count)
system.cpu0.dcache.ReadReq.misses::cpu0.data        85472                       # number of ReadReq misses (Count)
system.cpu0.dcache.ReadReq.misses::total        85472                       # number of ReadReq misses (Count)
system.cpu0.dcache.ReadReq.missLatency::cpu0.data   3909636500                       # number of ReadReq miss ticks (Tick)
system.cpu0.dcache.ReadReq.missLatency::total   3909636500                       # number of ReadReq miss ticks (Tick)
system.cpu0.dcache.ReadReq.accesses::cpu0.data    196880549                       # number of ReadReq accesses(hits+misses) (Count)
system.cpu0.dcache.ReadReq.accesses::total    196880549                       # number of ReadReq accesses(hits+misses) (Count)
system.cpu0.dcache.ReadReq.missRate::cpu0.data     0.000434                       # miss rate for ReadReq accesses (Ratio)
system.cpu0.dcache.ReadReq.missRate::total     0.000434                       # miss rate for ReadReq accesses (Ratio)
system.cpu0.dcache.ReadReq.avgMissLatency::cpu0.data 45741.722435                       # average ReadReq miss latency ((Tick/Count))
system.cpu0.dcache.ReadReq.avgMissLatency::total 45741.722435                       # average ReadReq miss latency ((Tick/Count))
system.cpu0.dcache.ReadReq.mshrHits::cpu0.data        64573                       # number of ReadReq MSHR hits (Count)
system.cpu0.dcache.ReadReq.mshrHits::total        64573                       # number of ReadReq MSHR hits (Count)
system.cpu0.dcache.ReadReq.mshrMisses::cpu0.data        20899                       # number of ReadReq MSHR misses (Count)
system.cpu0.dcache.ReadReq.mshrMisses::total        20899                       # number of ReadReq MSHR misses (Count)
system.cpu0.dcache.ReadReq.mshrMissLatency::cpu0.data   1405663500                       # number of ReadReq MSHR miss ticks (Tick)
system.cpu0.dcache.ReadReq.mshrMissLatency::total   1405663500                       # number of ReadReq MSHR miss ticks (Tick)
system.cpu0.dcache.ReadReq.mshrMissRate::cpu0.data     0.000106                       # mshr miss rate for ReadReq accesses (Ratio)
system.cpu0.dcache.ReadReq.mshrMissRate::total     0.000106                       # mshr miss rate for ReadReq accesses (Ratio)
system.cpu0.dcache.ReadReq.avgMshrMissLatency::cpu0.data 67259.844969                       # average ReadReq mshr miss latency ((Tick/Count))
system.cpu0.dcache.ReadReq.avgMshrMissLatency::total 67259.844969                       # average ReadReq mshr miss latency ((Tick/Count))
system.cpu0.dcache.WriteReq.hits::cpu0.data    188829603                       # number of WriteReq hits (Count)
system.cpu0.dcache.WriteReq.hits::total     188829603                       # number of WriteReq hits (Count)
system.cpu0.dcache.WriteReq.misses::cpu0.data        83318                       # number of WriteReq misses (Count)
system.cpu0.dcache.WriteReq.misses::total        83318                       # number of WriteReq misses (Count)
system.cpu0.dcache.WriteReq.missLatency::cpu0.data   4798061981                       # number of WriteReq miss ticks (Tick)
system.cpu0.dcache.WriteReq.missLatency::total   4798061981                       # number of WriteReq miss ticks (Tick)
system.cpu0.dcache.WriteReq.accesses::cpu0.data    188912921                       # number of WriteReq accesses(hits+misses) (Count)
system.cpu0.dcache.WriteReq.accesses::total    188912921                       # number of WriteReq accesses(hits+misses) (Count)
system.cpu0.dcache.WriteReq.missRate::cpu0.data     0.000441                       # miss rate for WriteReq accesses (Ratio)
system.cpu0.dcache.WriteReq.missRate::total     0.000441                       # miss rate for WriteReq accesses (Ratio)
system.cpu0.dcache.WriteReq.avgMissLatency::cpu0.data 57587.339843                       # average WriteReq miss latency ((Tick/Count))
system.cpu0.dcache.WriteReq.avgMissLatency::total 57587.339843                       # average WriteReq miss latency ((Tick/Count))
system.cpu0.dcache.WriteReq.mshrHits::cpu0.data           17                       # number of WriteReq MSHR hits (Count)
system.cpu0.dcache.WriteReq.mshrHits::total           17                       # number of WriteReq MSHR hits (Count)
system.cpu0.dcache.WriteReq.mshrMisses::cpu0.data        83301                       # number of WriteReq MSHR misses (Count)
system.cpu0.dcache.WriteReq.mshrMisses::total        83301                       # number of WriteReq MSHR misses (Count)
system.cpu0.dcache.WriteReq.mshrMissLatency::cpu0.data   4713812981                       # number of WriteReq MSHR miss ticks (Tick)
system.cpu0.dcache.WriteReq.mshrMissLatency::total   4713812981                       # number of WriteReq MSHR miss ticks (Tick)
system.cpu0.dcache.WriteReq.mshrMissRate::cpu0.data     0.000441                       # mshr miss rate for WriteReq accesses (Ratio)
system.cpu0.dcache.WriteReq.mshrMissRate::total     0.000441                       # mshr miss rate for WriteReq accesses (Ratio)
system.cpu0.dcache.WriteReq.avgMshrMissLatency::cpu0.data 56587.711804                       # average WriteReq mshr miss latency ((Tick/Count))
system.cpu0.dcache.WriteReq.avgMshrMissLatency::total 56587.711804                       # average WriteReq mshr miss latency ((Tick/Count))
system.cpu0.dcache.power_state.pwrStateResidencyTicks::UNDEFINED 272970356000                       # Cumulative time (in ticks) in various power states (Tick)
system.cpu0.dcache.tags.tagsInUse          511.947726                       # Average ticks per tags in use ((Tick/Count))
system.cpu0.dcache.tags.totalRefs           385729300                       # Total number of references to valid blocks. (Count)
system.cpu0.dcache.tags.sampledRefs            104194                       # Sample count of references to valid blocks. (Count)
system.cpu0.dcache.tags.avgRefs           3702.029867                       # Average number of references to valid blocks. ((Count/Count))
system.cpu0.dcache.tags.warmupTick             148000                       # The tick when the warmup percentage was hit. (Tick)
system.cpu0.dcache.tags.occupancies::cpu0.data   511.947726                       # Average occupied blocks per tick, per requestor ((Count/Tick))
system.cpu0.dcache.tags.avgOccs::cpu0.data     0.999898                       # Average percentage of cache occupancy ((Ratio/Tick))
system.cpu0.dcache.tags.avgOccs::total       0.999898                       # Average percentage of cache occupancy ((Ratio/Tick))
system.cpu0.dcache.tags.occupanciesTaskId::1024          512                       # Occupied blocks per task id (Count)
system.cpu0.dcache.tags.ageTaskId_1024::0            3                       # Occupied blocks per task id, per block age (Count)
system.cpu0.dcache.tags.ageTaskId_1024::1           17                       # Occupied blocks per task id, per block age (Count)
system.cpu0.dcache.tags.ageTaskId_1024::2          166                       # Occupied blocks per task id, per block age (Count)
system.cpu0.dcache.tags.ageTaskId_1024::3          154                       # Occupied blocks per task id, per block age (Count)
system.cpu0.dcache.tags.ageTaskId_1024::4          172                       # Occupied blocks per task id, per block age (Count)
system.cpu0.dcache.tags.ratioOccsTaskId::1024            1                       # Ratio of occupied blocks and all blocks, per task id (Ratio)
system.cpu0.dcache.tags.tagAccesses        3086455314                       # Number of tag accesses (Count)
system.cpu0.dcache.tags.dataAccesses       3086455314                       # Number of data accesses (Count)
system.cpu0.dcache.tags.power_state.pwrStateResidencyTicks::UNDEFINED 272970356000                       # Cumulative time (in ticks) in various power states (Tick)
system.cpu0.decode.idleCycles               165707867                       # Number of cycles decode is idle (Cycle)
system.cpu0.decode.blockedCycles             53406660                       # Number of cycles decode is blocked (Cycle)
system.cpu0.decode.runCycles                313283145                       # Number of cycles decode is running (Cycle)
system.cpu0.decode.unblockCycles             11326163                       # Number of cycles decode is unblocking (Cycle)
system.cpu0.decode.squashCycles               1424772                       # Number of cycles decode is squashing (Cycle)
system.cpu0.decode.branchResolved           108127529                       # Number of times decode resolved a branch (Count)
system.cpu0.decode.branchMispred               225313                       # Number of times decode detected a branch misprediction (Count)
system.cpu0.decode.decodedInsts            2047023012                       # Number of instructions handled by decode (Count)
system.cpu0.decode.squashedInsts              1231554                       # Number of squashed instructions handled by decode (Count)
system.cpu0.dtb_walker_cache.blockedCycles::no_mshrs            0                       # number of cycles access was blocked (Cycle)
system.cpu0.dtb_walker_cache.blockedCycles::no_targets            0                       # number of cycles access was blocked (Cycle)
system.cpu0.dtb_walker_cache.blockedCauses::no_mshrs            0                       # number of times access was blocked (Count)
system.cpu0.dtb_walker_cache.blockedCauses::no_targets            0                       # number of times access was blocked (Count)
system.cpu0.dtb_walker_cache.avgBlocked::no_mshrs          nan                       # average number of cycles each access was blocked ((Cycle/Count))
system.cpu0.dtb_walker_cache.avgBlocked::no_targets          nan                       # average number of cycles each access was blocked ((Cycle/Count))
system.cpu0.dtb_walker_cache.replacements            0                       # number of replacements (Count)
system.cpu0.dtb_walker_cache.power_state.pwrStateResidencyTicks::UNDEFINED 272970356000                       # Cumulative time (in ticks) in various power states (Tick)
system.cpu0.dtb_walker_cache.tags.tagsInUse            0                       # Average ticks per tags in use ((Tick/Count))
system.cpu0.dtb_walker_cache.tags.totalRefs            0                       # Total number of references to valid blocks. (Count)
system.cpu0.dtb_walker_cache.tags.sampledRefs            0                       # Sample count of references to valid blocks. (Count)
system.cpu0.dtb_walker_cache.tags.avgRefs          nan                       # Average number of references to valid blocks. ((Count/Count))
system.cpu0.dtb_walker_cache.tags.warmupTick            0                       # The tick when the warmup percentage was hit. (Tick)
system.cpu0.dtb_walker_cache.tags.tagAccesses            0                       # Number of tag accesses (Count)
system.cpu0.dtb_walker_cache.tags.dataAccesses            0                       # Number of data accesses (Count)
system.cpu0.dtb_walker_cache.tags.power_state.pwrStateResidencyTicks::UNDEFINED 272970356000                       # Cumulative time (in ticks) in various power states (Tick)
system.cpu0.fetch.icacheStallCycles         166949025                       # Number of cycles fetch is stalled on an Icache miss (Cycle)
system.cpu0.fetch.insts                    1026830656                       # Number of instructions fetch has processed (Count)
system.cpu0.fetch.branches                  249779992                       # Number of branches that fetch encountered (Count)
system.cpu0.fetch.predictedBranches         158149739                       # Number of branches that fetch has predicted taken (Count)
system.cpu0.fetch.cycles                    376539660                       # Number of cycles fetch has run and was not squashing or blocked (Cycle)
system.cpu0.fetch.squashCycles                3299862                       # Number of cycles fetch has spent squashing (Cycle)
system.cpu0.fetch.miscStallCycles                1077                       # Number of cycles fetch has spent waiting on interrupts, or bad addresses, or out of MSHRs (Cycle)
system.cpu0.fetch.pendingTrapStallCycles         8897                       # Number of stall cycles due to pending traps (Cycle)
system.cpu0.fetch.icacheWaitRetryStallCycles           17                       # Number of stall cycles due to full MSHR (Cycle)
system.cpu0.fetch.cacheLines                165623115                       # Number of cache lines fetched (Count)
system.cpu0.fetch.icacheSquashes               459840                       # Number of outstanding Icache misses that were squashed (Count)
system.cpu0.fetch.nisnDist::samples         545148607                       # Number of instructions fetched each cycle (Total) (Count)
system.cpu0.fetch.nisnDist::mean             3.787366                       # Number of instructions fetched each cycle (Total) (Count)
system.cpu0.fetch.nisnDist::stdev            3.501312                       # Number of instructions fetched each cycle (Total) (Count)
system.cpu0.fetch.nisnDist::underflows              0      0.00%      0.00% # Number of instructions fetched each cycle (Total) (Count)
system.cpu0.fetch.nisnDist::0               211091584     38.72%     38.72% # Number of instructions fetched each cycle (Total) (Count)
system.cpu0.fetch.nisnDist::1                16367994      3.00%     41.72% # Number of instructions fetched each cycle (Total) (Count)
system.cpu0.fetch.nisnDist::2                20098618      3.69%     45.41% # Number of instructions fetched each cycle (Total) (Count)
system.cpu0.fetch.nisnDist::3                20755233      3.81%     49.22% # Number of instructions fetched each cycle (Total) (Count)
system.cpu0.fetch.nisnDist::4                28137250      5.16%     54.38% # Number of instructions fetched each cycle (Total) (Count)
system.cpu0.fetch.nisnDist::5                22813836      4.18%     58.56% # Number of instructions fetched each cycle (Total) (Count)
system.cpu0.fetch.nisnDist::6                29875778      5.48%     64.04% # Number of instructions fetched each cycle (Total) (Count)
system.cpu0.fetch.nisnDist::7                28092872      5.15%     69.20% # Number of instructions fetched each cycle (Total) (Count)
system.cpu0.fetch.nisnDist::8               167915442     30.80%    100.00% # Number of instructions fetched each cycle (Total) (Count)
system.cpu0.fetch.nisnDist::overflows               0      0.00%    100.00% # Number of instructions fetched each cycle (Total) (Count)
system.cpu0.fetch.nisnDist::min_value               0                       # Number of instructions fetched each cycle (Total) (Count)
system.cpu0.fetch.nisnDist::max_value               8                       # Number of instructions fetched each cycle (Total) (Count)
system.cpu0.fetch.nisnDist::total           545148607                       # Number of instructions fetched each cycle (Total) (Count)
system.cpu0.fetch.branchRate                 0.457522                       # Number of branch fetches per cycle (Ratio)
system.cpu0.fetch.rate                       1.880846                       # Number of inst fetches per cycle ((Count/Cycle))
system.cpu0.icache.demandHits::cpu0.inst    165592520                       # number of demand (read+write) hits (Count)
system.cpu0.icache.demandHits::total        165592520                       # number of demand (read+write) hits (Count)
system.cpu0.icache.overallHits::cpu0.inst    165592520                       # number of overall hits (Count)
system.cpu0.icache.overallHits::total       165592520                       # number of overall hits (Count)
system.cpu0.icache.demandMisses::cpu0.inst        30595                       # number of demand (read+write) misses (Count)
system.cpu0.icache.demandMisses::total          30595                       # number of demand (read+write) misses (Count)
system.cpu0.icache.overallMisses::cpu0.inst        30595                       # number of overall misses (Count)
system.cpu0.icache.overallMisses::total         30595                       # number of overall misses (Count)
system.cpu0.icache.demandMissLatency::cpu0.inst   1047135500                       # number of demand (read+write) miss ticks (Tick)
system.cpu0.icache.demandMissLatency::total   1047135500                       # number of demand (read+write) miss ticks (Tick)
system.cpu0.icache.overallMissLatency::cpu0.inst   1047135500                       # number of overall miss ticks (Tick)
system.cpu0.icache.overallMissLatency::total   1047135500                       # number of overall miss ticks (Tick)
system.cpu0.icache.demandAccesses::cpu0.inst    165623115                       # number of demand (read+write) accesses (Count)
system.cpu0.icache.demandAccesses::total    165623115                       # number of demand (read+write) accesses (Count)
system.cpu0.icache.overallAccesses::cpu0.inst    165623115                       # number of overall (read+write) accesses (Count)
system.cpu0.icache.overallAccesses::total    165623115                       # number of overall (read+write) accesses (Count)
system.cpu0.icache.demandMissRate::cpu0.inst     0.000185                       # miss rate for demand accesses (Ratio)
system.cpu0.icache.demandMissRate::total     0.000185                       # miss rate for demand accesses (Ratio)
system.cpu0.icache.overallMissRate::cpu0.inst     0.000185                       # miss rate for overall accesses (Ratio)
system.cpu0.icache.overallMissRate::total     0.000185                       # miss rate for overall accesses (Ratio)
system.cpu0.icache.demandAvgMissLatency::cpu0.inst 34225.706815                       # average overall miss latency in ticks ((Tick/Count))
system.cpu0.icache.demandAvgMissLatency::total 34225.706815                       # average overall miss latency in ticks ((Tick/Count))
system.cpu0.icache.overallAvgMissLatency::cpu0.inst 34225.706815                       # average overall miss latency ((Tick/Count))
system.cpu0.icache.overallAvgMissLatency::total 34225.706815                       # average overall miss latency ((Tick/Count))
system.cpu0.icache.blockedCycles::no_mshrs          828                       # number of cycles access was blocked (Cycle)
system.cpu0.icache.blockedCycles::no_targets            0                       # number of cycles access was blocked (Cycle)
system.cpu0.icache.blockedCauses::no_mshrs           14                       # number of times access was blocked (Count)
system.cpu0.icache.blockedCauses::no_targets            0                       # number of times access was blocked (Count)
system.cpu0.icache.avgBlocked::no_mshrs     59.142857                       # average number of cycles each access was blocked ((Cycle/Count))
system.cpu0.icache.avgBlocked::no_targets          nan                       # average number of cycles each access was blocked ((Cycle/Count))
system.cpu0.icache.writebacks::writebacks        26471                       # number of writebacks (Count)
system.cpu0.icache.writebacks::total            26471                       # number of writebacks (Count)
system.cpu0.icache.demandMshrHits::cpu0.inst         3606                       # number of demand (read+write) MSHR hits (Count)
system.cpu0.icache.demandMshrHits::total         3606                       # number of demand (read+write) MSHR hits (Count)
system.cpu0.icache.overallMshrHits::cpu0.inst         3606                       # number of overall MSHR hits (Count)
system.cpu0.icache.overallMshrHits::total         3606                       # number of overall MSHR hits (Count)
system.cpu0.icache.demandMshrMisses::cpu0.inst        26989                       # number of demand (read+write) MSHR misses (Count)
system.cpu0.icache.demandMshrMisses::total        26989                       # number of demand (read+write) MSHR misses (Count)
system.cpu0.icache.overallMshrMisses::cpu0.inst        26989                       # number of overall MSHR misses (Count)
system.cpu0.icache.overallMshrMisses::total        26989                       # number of overall MSHR misses (Count)
system.cpu0.icache.demandMshrMissLatency::cpu0.inst    910026500                       # number of demand (read+write) MSHR miss ticks (Tick)
system.cpu0.icache.demandMshrMissLatency::total    910026500                       # number of demand (read+write) MSHR miss ticks (Tick)
system.cpu0.icache.overallMshrMissLatency::cpu0.inst    910026500                       # number of overall MSHR miss ticks (Tick)
system.cpu0.icache.overallMshrMissLatency::total    910026500                       # number of overall MSHR miss ticks (Tick)
system.cpu0.icache.demandMshrMissRate::cpu0.inst     0.000163                       # mshr miss ratio for demand accesses (Ratio)
system.cpu0.icache.demandMshrMissRate::total     0.000163                       # mshr miss ratio for demand accesses (Ratio)
system.cpu0.icache.overallMshrMissRate::cpu0.inst     0.000163                       # mshr miss ratio for overall accesses (Ratio)
system.cpu0.icache.overallMshrMissRate::total     0.000163                       # mshr miss ratio for overall accesses (Ratio)
system.cpu0.icache.demandAvgMshrMissLatency::cpu0.inst 33718.422320                       # average overall mshr miss latency ((Tick/Count))
system.cpu0.icache.demandAvgMshrMissLatency::total 33718.422320                       # average overall mshr miss latency ((Tick/Count))
system.cpu0.icache.overallAvgMshrMissLatency::cpu0.inst 33718.422320                       # average overall mshr miss latency ((Tick/Count))
system.cpu0.icache.overallAvgMshrMissLatency::total 33718.422320                       # average overall mshr miss latency ((Tick/Count))
system.cpu0.icache.replacements                 26471                       # number of replacements (Count)
system.cpu0.icache.ReadReq.hits::cpu0.inst    165592520                       # number of ReadReq hits (Count)
system.cpu0.icache.ReadReq.hits::total      165592520                       # number of ReadReq hits (Count)
system.cpu0.icache.ReadReq.misses::cpu0.inst        30595                       # number of ReadReq misses (Count)
system.cpu0.icache.ReadReq.misses::total        30595                       # number of ReadReq misses (Count)
system.cpu0.icache.ReadReq.missLatency::cpu0.inst   1047135500                       # number of ReadReq miss ticks (Tick)
system.cpu0.icache.ReadReq.missLatency::total   1047135500                       # number of ReadReq miss ticks (Tick)
system.cpu0.icache.ReadReq.accesses::cpu0.inst    165623115                       # number of ReadReq accesses(hits+misses) (Count)
system.cpu0.icache.ReadReq.accesses::total    165623115                       # number of ReadReq accesses(hits+misses) (Count)
system.cpu0.icache.ReadReq.missRate::cpu0.inst     0.000185                       # miss rate for ReadReq accesses (Ratio)
system.cpu0.icache.ReadReq.missRate::total     0.000185                       # miss rate for ReadReq accesses (Ratio)
system.cpu0.icache.ReadReq.avgMissLatency::cpu0.inst 34225.706815                       # average ReadReq miss latency ((Tick/Count))
system.cpu0.icache.ReadReq.avgMissLatency::total 34225.706815                       # average ReadReq miss latency ((Tick/Count))
system.cpu0.icache.ReadReq.mshrHits::cpu0.inst         3606                       # number of ReadReq MSHR hits (Count)
system.cpu0.icache.ReadReq.mshrHits::total         3606                       # number of ReadReq MSHR hits (Count)
system.cpu0.icache.ReadReq.mshrMisses::cpu0.inst        26989                       # number of ReadReq MSHR misses (Count)
system.cpu0.icache.ReadReq.mshrMisses::total        26989                       # number of ReadReq MSHR misses (Count)
system.cpu0.icache.ReadReq.mshrMissLatency::cpu0.inst    910026500                       # number of ReadReq MSHR miss ticks (Tick)
system.cpu0.icache.ReadReq.mshrMissLatency::total    910026500                       # number of ReadReq MSHR miss ticks (Tick)
system.cpu0.icache.ReadReq.mshrMissRate::cpu0.inst     0.000163                       # mshr miss rate for ReadReq accesses (Ratio)
system.cpu0.icache.ReadReq.mshrMissRate::total     0.000163                       # mshr miss rate for ReadReq accesses (Ratio)
system.cpu0.icache.ReadReq.avgMshrMissLatency::cpu0.inst 33718.422320                       # average ReadReq mshr miss latency ((Tick/Count))
system.cpu0.icache.ReadReq.avgMshrMissLatency::total 33718.422320                       # average ReadReq mshr miss latency ((Tick/Count))
system.cpu0.icache.power_state.pwrStateResidencyTicks::UNDEFINED 272970356000                       # Cumulative time (in ticks) in various power states (Tick)
system.cpu0.icache.tags.tagsInUse          511.945209                       # Average ticks per tags in use ((Tick/Count))
system.cpu0.icache.tags.totalRefs           165619509                       # Total number of references to valid blocks. (Count)
system.cpu0.icache.tags.sampledRefs             26989                       # Sample count of references to valid blocks. (Count)
system.cpu0.icache.tags.avgRefs           6136.555967                       # Average number of references to valid blocks. ((Count/Count))
system.cpu0.icache.tags.warmupTick              77000                       # The tick when the warmup percentage was hit. (Tick)
system.cpu0.icache.tags.occupancies::cpu0.inst   511.945209                       # Average occupied blocks per tick, per requestor ((Count/Tick))
system.cpu0.icache.tags.avgOccs::cpu0.inst     0.999893                       # Average percentage of cache occupancy ((Ratio/Tick))
system.cpu0.icache.tags.avgOccs::total       0.999893                       # Average percentage of cache occupancy ((Ratio/Tick))
system.cpu0.icache.tags.occupanciesTaskId::1024          512                       # Occupied blocks per task id (Count)
system.cpu0.icache.tags.ageTaskId_1024::4          512                       # Occupied blocks per task id, per block age (Count)
system.cpu0.icache.tags.ratioOccsTaskId::1024            1                       # Ratio of occupied blocks and all blocks, per task id (Ratio)
system.cpu0.icache.tags.tagAccesses        1325011909                       # Number of tag accesses (Count)
system.cpu0.icache.tags.dataAccesses       1325011909                       # Number of data accesses (Count)
system.cpu0.icache.tags.power_state.pwrStateResidencyTicks::UNDEFINED 272970356000                       # Cumulative time (in ticks) in various power states (Tick)
system.cpu0.iew.idleCycles                          0                       # Number of cycles IEW is idle (Cycle)
system.cpu0.iew.squashCycles                  1424772                       # Number of cycles IEW is squashing (Cycle)
system.cpu0.iew.blockCycles                   5453665                       # Number of cycles IEW is blocking (Cycle)
system.cpu0.iew.unblockCycles                 1539742                       # Number of cycles IEW is unblocking (Cycle)
system.cpu0.iew.dispatchedInsts            2032381884                       # Number of instructions dispatched to IQ (Count)
system.cpu0.iew.dispSquashedInsts               92415                       # Number of squashed instructions skipped by dispatch (Count)
system.cpu0.iew.dispLoadInsts               248263649                       # Number of dispatched load instructions (Count)
system.cpu0.iew.dispStoreInsts              193974243                       # Number of dispatched store instructions (Count)
system.cpu0.iew.dispNonSpecInsts               289037                       # Number of dispatched non-speculative instructions (Count)
system.cpu0.iew.iqFullEvents                     4084                       # Number of times the IQ has become full, causing a stall (Count)
system.cpu0.iew.lsqFullEvents                 1529164                       # Number of times the LSQ has become full, causing a stall (Count)
system.cpu0.iew.memOrderViolationEvents          9461                       # Number of memory order violations (Count)
system.cpu0.iew.predictedTakenIncorrect        939277                       # Number of branches that were predicted taken incorrectly (Count)
system.cpu0.iew.predictedNotTakenIncorrect       519792                       # Number of branches that were predicted not taken incorrectly (Count)
system.cpu0.iew.branchMispredicts             1459069                       # Number of branch mispredicts detected at execute (Count)
system.cpu0.iew.instsToCommit              2007267440                       # Cumulative count of insts sent to commit (Count)
system.cpu0.iew.writebackCount             2006712662                       # Cumulative count of insts written-back (Count)
system.cpu0.iew.producerInst               1399061643                       # Number of instructions producing a value (Count)
system.cpu0.iew.consumerInst               2287209589                       # Number of instructions consuming a value (Count)
system.cpu0.iew.wbRate                       3.675697                       # Insts written-back per cycle ((Count/Cycle))
system.cpu0.iew.wbFanout                     0.611689                       # Average fanout of values written-back ((Count/Count))
system.cpu0.interrupts.clk_domain.clock          8000                       # Clock period in ticks (Tick)
system.cpu0.itb_walker_cache.blockedCycles::no_mshrs            0                       # number of cycles access was blocked (Cycle)
system.cpu0.itb_walker_cache.blockedCycles::no_targets            0                       # number of cycles access was blocked (Cycle)
system.cpu0.itb_walker_cache.blockedCauses::no_mshrs            0                       # number of times access was blocked (Count)
system.cpu0.itb_walker_cache.blockedCauses::no_targets            0                       # number of times access was blocked (Count)
system.cpu0.itb_walker_cache.avgBlocked::no_mshrs          nan                       # average number of cycles each access was blocked ((Cycle/Count))
system.cpu0.itb_walker_cache.avgBlocked::no_targets          nan                       # average number of cycles each access was blocked ((Cycle/Count))
system.cpu0.itb_walker_cache.replacements            0                       # number of replacements (Count)
system.cpu0.itb_walker_cache.power_state.pwrStateResidencyTicks::UNDEFINED 272970356000                       # Cumulative time (in ticks) in various power states (Tick)
system.cpu0.itb_walker_cache.tags.tagsInUse            0                       # Average ticks per tags in use ((Tick/Count))
system.cpu0.itb_walker_cache.tags.totalRefs            0                       # Total number of references to valid blocks. (Count)
system.cpu0.itb_walker_cache.tags.sampledRefs            0                       # Sample count of references to valid blocks. (Count)
system.cpu0.itb_walker_cache.tags.avgRefs          nan                       # Average number of references to valid blocks. ((Count/Count))
system.cpu0.itb_walker_cache.tags.warmupTick            0                       # The tick when the warmup percentage was hit. (Tick)
system.cpu0.itb_walker_cache.tags.tagAccesses            0                       # Number of tag accesses (Count)
system.cpu0.itb_walker_cache.tags.dataAccesses            0                       # Number of data accesses (Count)
system.cpu0.itb_walker_cache.tags.power_state.pwrStateResidencyTicks::UNDEFINED 272970356000                       # Cumulative time (in ticks) in various power states (Tick)
system.cpu0.lsq0.forwLoads                   50179809                       # Number of loads that had data forwarded from stores (Count)
system.cpu0.lsq0.squashedLoads                3971164                       # Number of loads squashed (Count)
system.cpu0.lsq0.ignoredResponses               19232                       # Number of memory responses ignored because the instruction is squashed (Count)
system.cpu0.lsq0.memOrderViolation               9461                       # Number of memory ordering violations (Count)
system.cpu0.lsq0.squashedStores               5061142                       # Number of stores squashed (Count)
system.cpu0.lsq0.rescheduledLoads               13193                       # Number of loads that were rescheduled (Count)
[...]
system.mem_ctrls.dram.perBankRdBursts::5         6273                       # Per bank write bursts (Count)
system.mem_ctrls.dram.perBankRdBursts::6         5794                       # Per bank write bursts (Count)
system.mem_ctrls.dram.perBankRdBursts::7         5955                       # Per bank write bursts (Count)
system.mem_ctrls.dram.perBankRdBursts::8         5077                       # Per bank write bursts (Count)
system.mem_ctrls.dram.perBankRdBursts::9         5387                       # Per bank write bursts (Count)
system.mem_ctrls.dram.perBankRdBursts::10         5562                       # Per bank write bursts (Count)
system.mem_ctrls.dram.perBankRdBursts::11         5786                       # Per bank write bursts (Count)
system.mem_ctrls.dram.perBankRdBursts::12         5426                       # Per bank write bursts (Count)
system.mem_ctrls.dram.perBankRdBursts::13         5921                       # Per bank write bursts (Count)
system.mem_ctrls.dram.perBankRdBursts::14         5153                       # Per bank write bursts (Count)
system.mem_ctrls.dram.perBankRdBursts::15         6804                       # Per bank write bursts (Count)
system.mem_ctrls.dram.perBankWrBursts::0         5537                       # Per bank write bursts (Count)
system.mem_ctrls.dram.perBankWrBursts::1         5918                       # Per bank write bursts (Count)
system.mem_ctrls.dram.perBankWrBursts::2         5888                       # Per bank write bursts (Count)
system.mem_ctrls.dram.perBankWrBursts::3         5857                       # Per bank write bursts (Count)
system.mem_ctrls.dram.perBankWrBursts::4         5503                       # Per bank write bursts (Count)
system.mem_ctrls.dram.perBankWrBursts::5         6700                       # Per bank write bursts (Count)
system.mem_ctrls.dram.perBankWrBursts::6         5840                       # Per bank write bursts (Count)
system.mem_ctrls.dram.perBankWrBursts::7         5872                       # Per bank write bursts (Count)
system.mem_ctrls.dram.perBankWrBursts::8         5485                       # Per bank write bursts (Count)
system.mem_ctrls.dram.perBankWrBursts::9         5657                       # Per bank write bursts (Count)
system.mem_ctrls.dram.perBankWrBursts::10         5624                       # Per bank write bursts (Count)
system.mem_ctrls.dram.perBankWrBursts::11         5578                       # Per bank write bursts (Count)
system.mem_ctrls.dram.perBankWrBursts::12         5646                       # Per bank write bursts (Count)
system.mem_ctrls.dram.perBankWrBursts::13         5834                       # Per bank write bursts (Count)
system.mem_ctrls.dram.perBankWrBursts::14         5086                       # Per bank write bursts (Count)
system.mem_ctrls.dram.perBankWrBursts::15         5776                       # Per bank write bursts (Count)
system.mem_ctrls.dram.totQLat              1434510500                       # Total ticks spent queuing (Tick)
system.mem_ctrls.dram.totBusLat             464750000                       # Total ticks spent in databus transfers (Tick)
system.mem_ctrls.dram.totMemAccLat         3177323000                       # Total ticks spent from burst creation until serviced by the DRAM (Tick)
system.mem_ctrls.dram.avgQLat                15433.14                       # Average queueing delay per DRAM burst ((Tick/Count))
system.mem_ctrls.dram.avgBusLat               5000.00                       # Average bus latency per DRAM burst ((Tick/Count))
system.mem_ctrls.dram.avgMemAccLat           34183.14                       # Average memory access latency per DRAM burst ((Tick/Count))
system.mem_ctrls.dram.readRowHits               46155                       # Number of row buffer hits during reads (Count)
system.mem_ctrls.dram.writeRowHits              70408                       # Number of row buffer hits during writes (Count)
system.mem_ctrls.dram.readRowHitRate            49.66                       # Row buffer hit rate for reads (Ratio)
system.mem_ctrls.dram.writeRowHitRate           76.70                       # Row buffer hit rate for writes (Ratio)
system.mem_ctrls.dram.bytesPerActivate::samples        68188                       # Bytes accessed per row activation (Byte)
system.mem_ctrls.dram.bytesPerActivate::mean   173.403883                       # Bytes accessed per row activation (Byte)
system.mem_ctrls.dram.bytesPerActivate::gmean   123.718534                       # Bytes accessed per row activation (Byte)
system.mem_ctrls.dram.bytesPerActivate::stdev   189.512415                       # Bytes accessed per row activation (Byte)
system.mem_ctrls.dram.bytesPerActivate::0-127        29785     43.68%     43.68% # Bytes accessed per row activation (Byte)
system.mem_ctrls.dram.bytesPerActivate::128-255        24496     35.92%     79.60% # Bytes accessed per row activation (Byte)
system.mem_ctrls.dram.bytesPerActivate::256-383         6781      9.94%     89.55% # Bytes accessed per row activation (Byte)
system.mem_ctrls.dram.bytesPerActivate::384-511         2674      3.92%     93.47% # Bytes accessed per row activation (Byte)
system.mem_ctrls.dram.bytesPerActivate::512-639         1469      2.15%     95.63% # Bytes accessed per row activation (Byte)
system.mem_ctrls.dram.bytesPerActivate::640-767          695      1.02%     96.64% # Bytes accessed per row activation (Byte)
system.mem_ctrls.dram.bytesPerActivate::768-895          462      0.68%     97.32% # Bytes accessed per row activation (Byte)
system.mem_ctrls.dram.bytesPerActivate::896-1023          329      0.48%     97.80% # Bytes accessed per row activation (Byte)
system.mem_ctrls.dram.bytesPerActivate::1024-1151         1497      2.20%    100.00% # Bytes accessed per row activation (Byte)
system.mem_ctrls.dram.bytesPerActivate::total        68188                       # Bytes accessed per row activation (Byte)
system.mem_ctrls.dram.bytesRead               5948800                       # Total bytes read (Byte)
system.mem_ctrls.dram.bytesWritten            5875264                       # Total bytes written (Byte)
system.mem_ctrls.dram.avgRdBW               21.792843                       # Average DRAM read bandwidth in MiBytes/s ((Byte/Second))
system.mem_ctrls.dram.avgWrBW               21.523451                       # Average DRAM write bandwidth in MiBytes/s ((Byte/Second))
system.mem_ctrls.dram.peakBW                 12800.00                       # Theoretical peak bandwidth in MiByte/s ((Byte/Second))
system.mem_ctrls.dram.busUtil                    0.34                       # Data bus utilization in percentage (Ratio)
system.mem_ctrls.dram.busUtilRead                0.17                       # Data bus utilization in percentage for reads (Ratio)
system.mem_ctrls.dram.busUtilWrite               0.17                       # Data bus utilization in percentage for writes (Ratio)
system.mem_ctrls.dram.pageHitRate               63.09                       # Row buffer hit rate, read and write combined (Ratio)
system.mem_ctrls.dram.power_state.pwrStateResidencyTicks::UNDEFINED 272970356000                       # Cumulative time (in ticks) in various power states (Tick)
system.mem_ctrls.dram.rank0.actEnergy       245780220                       # Energy for activate commands per rank (pJ) (Joule)
system.mem_ctrls.dram.rank0.preEnergy       130635285                       # Energy for precharge commands per rank (pJ) (Joule)
system.mem_ctrls.dram.rank0.readEnergy      341534760                       # Energy for read commands per rank (pJ) (Joule)
system.mem_ctrls.dram.rank0.writeEnergy     245940300                       # Energy for write commands per rank (pJ) (Joule)
system.mem_ctrls.dram.rank0.refreshEnergy 21547434480.000004                       # Energy for refresh commands per rank (pJ) (Joule)
system.mem_ctrls.dram.rank0.actBackEnergy  26423194740                       # Energy for active background per rank (pJ) (Joule)
system.mem_ctrls.dram.rank0.preBackEnergy  82569505440                       # Energy for precharge background per rank (pJ) (Joule)
system.mem_ctrls.dram.rank0.actPowerDownEnergy            0                       # Energy for active power-down per rank (pJ) (Joule)
system.mem_ctrls.dram.rank0.prePowerDownEnergy            0                       # Energy for precharge power-down per rank (pJ) (Joule)
system.mem_ctrls.dram.rank0.selfRefreshEnergy            0                       # Energy for self refresh per rank (pJ) (Joule)
system.mem_ctrls.dram.rank0.totalEnergy  131504025225                       # Total energy per rank (pJ) (Joule)
system.mem_ctrls.dram.rank0.averagePower   481.752038                       # Core power per rank (mW) (Watt)
system.mem_ctrls.dram.rank0.totalIdleTime            0                       # Total Idle time Per DRAM Rank (Tick)
system.mem_ctrls.dram.rank0.pwrStateTime::IDLE 214371009000                       # Time in different power states (Tick)
system.mem_ctrls.dram.rank0.pwrStateTime::REF   9114820000                       # Time in different power states (Tick)
system.mem_ctrls.dram.rank0.pwrStateTime::SREF            0                       # Time in different power states (Tick)
system.mem_ctrls.dram.rank0.pwrStateTime::PRE_PDN            0                       # Time in different power states (Tick)
system.mem_ctrls.dram.rank0.pwrStateTime::ACT  49484527000                       # Time in different power states (Tick)
system.mem_ctrls.dram.rank0.pwrStateTime::ACT_PDN            0                       # Time in different power states (Tick)
system.mem_ctrls.dram.rank1.actEnergy       241082100                       # Energy for activate commands per rank (pJ) (Joule)
system.mem_ctrls.dram.rank1.preEnergy       128138175                       # Energy for precharge commands per rank (pJ) (Joule)
system.mem_ctrls.dram.rank1.readEnergy      322128240                       # Energy for read commands per rank (pJ) (Joule)
system.mem_ctrls.dram.rank1.writeEnergy     233260920                       # Energy for write commands per rank (pJ) (Joule)
system.mem_ctrls.dram.rank1.refreshEnergy 21548049120.000004                       # Energy for refresh commands per rank (pJ) (Joule)
system.mem_ctrls.dram.rank1.actBackEnergy  25443688500                       # Energy for active background per rank (pJ) (Joule)
system.mem_ctrls.dram.rank1.preBackEnergy  83394445920                       # Energy for precharge background per rank (pJ) (Joule)
system.mem_ctrls.dram.rank1.actPowerDownEnergy            0                       # Energy for active power-down per rank (pJ) (Joule)
system.mem_ctrls.dram.rank1.prePowerDownEnergy            0                       # Energy for precharge power-down per rank (pJ) (Joule)
system.mem_ctrls.dram.rank1.selfRefreshEnergy            0                       # Energy for self refresh per rank (pJ) (Joule)
system.mem_ctrls.dram.rank1.totalEnergy  131310792975                       # Total energy per rank (pJ) (Joule)
system.mem_ctrls.dram.rank1.averagePower   481.044150                       # Core power per rank (mW) (Watt)
system.mem_ctrls.dram.rank1.totalIdleTime            0                       # Total Idle time Per DRAM Rank (Tick)
system.mem_ctrls.dram.rank1.pwrStateTime::IDLE 216527401500                       # Time in different power states (Tick)
system.mem_ctrls.dram.rank1.pwrStateTime::REF   9114823500                       # Time in different power states (Tick)
system.mem_ctrls.dram.rank1.pwrStateTime::SREF            0                       # Time in different power states (Tick)
system.mem_ctrls.dram.rank1.pwrStateTime::PRE_PDN            0                       # Time in different power states (Tick)
system.mem_ctrls.dram.rank1.pwrStateTime::ACT  47328131000                       # Time in different power states (Tick)
system.mem_ctrls.dram.rank1.pwrStateTime::ACT_PDN            0                       # Time in different power states (Tick)
system.mem_ctrls.power_state.pwrStateResidencyTicks::UNDEFINED 272970356000                       # Cumulative time (in ticks) in various power states (Tick)
system.membus.transDist::ReadResp               47887                       # Transaction distribution (Count)
system.membus.transDist::WritebackDirty         83390                       # Transaction distribution (Count)
system.membus.transDist::WritebackClean         26471                       # Transaction distribution (Count)
system.membus.transDist::CleanEvict             20292                       # Transaction distribution (Count)
system.membus.transDist::UpgradeReq                 6                       # Transaction distribution (Count)
system.membus.transDist::ReadExReq              83296                       # Transaction distribution (Count)
system.membus.transDist::ReadExResp             83296                       # Transaction distribution (Count)
system.membus.transDist::ReadCleanReq           26989                       # Transaction distribution (Count)
system.membus.transDist::ReadSharedReq          20898                       # Transaction distribution (Count)
system.membus.pktCount_system.cpu0.icache.mem_side_port::system.mem_ctrls.port        80442                       # Packet count per connected requestor and responder (Count)
system.membus.pktCount_system.cpu0.icache.mem_side_port::total        80442                       # Packet count per connected requestor and responder (Count)
system.membus.pktCount_system.cpu0.dcache.mem_side_port::system.mem_ctrls.port       312076                       # Packet count per connected requestor and responder (Count)
system.membus.pktCount_system.cpu0.dcache.mem_side_port::total       312076                       # Packet count per connected requestor and responder (Count)
system.membus.pktCount::total                  392518                       # Packet count per connected requestor and responder (Count)
system.membus.pktSize_system.cpu0.icache.mem_side_port::system.mem_ctrls.port      3420992                       # Cumulative packet size per connected requestor and responder (Byte)
system.membus.pktSize_system.cpu0.icache.mem_side_port::total      3420992                       # Cumulative packet size per connected requestor and responder (Byte)
system.membus.pktSize_system.cpu0.dcache.mem_side_port::system.mem_ctrls.port     12005376                       # Cumulative packet size per connected requestor and responder (Byte)
system.membus.pktSize_system.cpu0.dcache.mem_side_port::total     12005376                       # Cumulative packet size per connected requestor and responder (Byte)
system.membus.pktSize::total                 15426368                       # Cumulative packet size per connected requestor and responder (Byte)
system.membus.snoops                                7                       # Total snoops (Count)
system.membus.snoopTraffic                        448                       # Total snoop traffic (Byte)
system.membus.snoopFanout::samples             131189                       # Request fanout histogram (Count)
system.membus.snoopFanout::mean              0.000229                       # Request fanout histogram (Count)
system.membus.snoopFanout::stdev             0.015120                       # Request fanout histogram (Count)
system.membus.snoopFanout::underflows               0      0.00%      0.00% # Request fanout histogram (Count)
system.membus.snoopFanout::0                   131159     99.98%     99.98% # Request fanout histogram (Count)
system.membus.snoopFanout::1                       30      0.02%    100.00% # Request fanout histogram (Count)
system.membus.snoopFanout::2                        0      0.00%    100.00% # Request fanout histogram (Count)
system.membus.snoopFanout::3                        0      0.00%    100.00% # Request fanout histogram (Count)
system.membus.snoopFanout::4                        0      0.00%    100.00% # Request fanout histogram (Count)
system.membus.snoopFanout::5                        0      0.00%    100.00% # Request fanout histogram (Count)
system.membus.snoopFanout::6                        0      0.00%    100.00% # Request fanout histogram (Count)
system.membus.snoopFanout::7                        0      0.00%    100.00% # Request fanout histogram (Count)
system.membus.snoopFanout::8                        0      0.00%    100.00% # Request fanout histogram (Count)
system.membus.snoopFanout::9                        0      0.00%    100.00% # Request fanout histogram (Count)
system.membus.snoopFanout::10                       0      0.00%    100.00% # Request fanout histogram (Count)
system.membus.snoopFanout::11                       0      0.00%    100.00% # Request fanout histogram (Count)
system.membus.snoopFanout::12                       0      0.00%    100.00% # Request fanout histogram (Count)
system.membus.snoopFanout::13                       0      0.00%    100.00% # Request fanout histogram (Count)
system.membus.snoopFanout::14                       0      0.00%    100.00% # Request fanout histogram (Count)
system.membus.snoopFanout::15                       0      0.00%    100.00% # Request fanout histogram (Count)
system.membus.snoopFanout::16                       0      0.00%    100.00% # Request fanout histogram (Count)
system.membus.snoopFanout::overflows                0      0.00%    100.00% # Request fanout histogram (Count)
system.membus.snoopFanout::min_value                0                       # Request fanout histogram (Count)
system.membus.snoopFanout::max_value                1                       # Request fanout histogram (Count)
system.membus.snoopFanout::total               131189                       # Request fanout histogram (Count)
system.membus.power_state.pwrStateResidencyTicks::UNDEFINED 272970356000                       # Cumulative time (in ticks) in various power states (Tick)
system.membus.reqLayer8.occupancy           717398000                       # Layer occupancy (ticks) (Tick)
system.membus.reqLayer8.utilization               0.0                       # Layer utilization (Ratio)
system.membus.respLayer1.occupancy          137498250                       # Layer occupancy (ticks) (Tick)
system.membus.respLayer1.utilization              0.0                       # Layer utilization (Ratio)
system.membus.respLayer2.occupancy          555293750                       # Layer occupancy (ticks) (Tick)
system.membus.respLayer2.utilization              0.0                       # Layer utilization (Ratio)
system.membus.snoop_filter.totRequests         261342                       # Total number of requests made to the snoop filter. (Count)
system.membus.snoop_filter.hitSingleRequests       130156                       # Number of requests hitting in the snoop filter with a single holder of the requested data. (Count)
system.membus.snoop_filter.hitMultiRequests           27                       # Number of requests hitting in the snoop filter with multiple (>1) holders of the requested data. (Count)
system.membus.snoop_filter.totSnoops                0                       # Total number of snoops made to the snoop filter. (Count)
system.membus.snoop_filter.hitSingleSnoops            0                       # Number of snoops hitting in the snoop filter with a single holder of the requested data. (Count)
system.membus.snoop_filter.hitMultiSnoops            0                       # Number of snoops hitting in the snoop filter with multiple (>1) holders of the requested data. (Count)
system.voltage_domain.voltage                       1                       # Voltage in Volts (Volt)
system.workload.inst.arm                            0                       # number of arm instructions executed (Count)
system.workload.inst.quiesce                        0                       # number of quiesce instructions executed (Count)

---------- End Simulation Statistics   ----------
