
---------- Begin Simulation Statistics ----------
simSeconds                                   0.462809                       # Number of seconds simulated (Second)
simTicks                                 462808817000                       # Number of ticks simulated (Tick)
finalTick                                462808817000                       # Number of ticks from beginning of simulation (restored from checkpoints and never reset) (Tick)
simFreq                                  1000000000000                       # The number of ticks per simulated second ((Tick/Second))
hostSeconds                                   6585.73                       # Real time elapsed on the host (Second)
hostTickRate                                 70274497                       # The number of ticks simulated per host second (ticks/s) ((Tick/Second))
hostMemory                                    8825820                       # Number of bytes of host memory used (Byte)
simInsts                                   1000000000                       # Number of instructions simulated (Count)
simOps                                     1921829464                       # Number of ops (including micro ops) simulated (Count)
hostInstRate                                   151843                       # Simulator instruction rate (inst/s) ((Count/Second))
hostOpRate                                     291817                       # Simulator op (including micro ops) rate (op/s) ((Count/Second))
system.clk_domain.clock                          1000                       # Clock period in ticks (Tick)
system.cpu0.numCycles                       925617635                       # Number of cpu cycles simulated (Cycle)
system.cpu0.numWorkItemsStarted                     0                       # Number of work items this cpu started (Count)
system.cpu0.numWorkItemsCompleted                   0                       # Number of work items this cpu completed (Count)
system.cpu0.instsAdded                     1928111460                       # Number of instructions added to the IQ (excludes non-spec) (Count)
system.cpu0.nonSpecInstsAdded                    1427                       # Number of non-speculative instructions added to the IQ (Count)
system.cpu0.instsIssued                    1929927183                       # Number of instructions issued (Count)
system.cpu0.squashedInstsIssued                127124                       # Number of squashed instructions issued (Count)
system.cpu0.squashedInstsExamined             6283334                       # Number of squashed instructions iterated over during squash; mainly for profiling (Count)
system.cpu0.squashedOperandsExamined          7663149                       # Number of squashed operands that are examined and possibly removed from graph (Count)
system.cpu0.squashedNonSpecRemoved                812                       # Number of squashed non-spec instructions that were removed (Count)
system.cpu0.numIssuedDist::samples          925167920                       # Number of insts issued each cycle (Count)
system.cpu0.numIssuedDist::mean              2.086029                       # Number of insts issued each cycle (Count)
system.cpu0.numIssuedDist::stdev             2.590167                       # Number of insts issued each cycle (Count)
system.cpu0.numIssuedDist::underflows               0      0.00%      0.00% # Number of insts issued each cycle (Count)
system.cpu0.numIssuedDist::0                477402280     51.60%     51.60% # Number of insts issued each cycle (Count)
system.cpu0.numIssuedDist::1                 44263840      4.78%     56.39% # Number of insts issued each cycle (Count)
system.cpu0.numIssuedDist::2                 59808829      6.46%     62.85% # Number of insts issued each cycle (Count)
system.cpu0.numIssuedDist::3                 66171051      7.15%     70.00% # Number of insts issued each cycle (Count)
system.cpu0.numIssuedDist::4                 73217014      7.91%     77.92% # Number of insts issued each cycle (Count)
system.cpu0.numIssuedDist::5                 62231731      6.73%     84.64% # Number of insts issued each cycle (Count)
system.cpu0.numIssuedDist::6                 65004451      7.03%     91.67% # Number of insts issued each cycle (Count)
system.cpu0.numIssuedDist::7                 43070677      4.66%     96.33% # Number of insts issued each cycle (Count)
system.cpu0.numIssuedDist::8                 33998047      3.67%    100.00% # Number of insts issued each cycle (Count)
system.cpu0.numIssuedDist::overflows                0      0.00%    100.00% # Number of insts issued each cycle (Count)
system.cpu0.numIssuedDist::min_value                0                       # Number of insts issued each cycle (Count)
system.cpu0.numIssuedDist::max_value                8                       # Number of insts issued each cycle (Count)
system.cpu0.numIssuedDist::total            925167920                       # Number of insts issued each cycle (Count)
system.cpu0.statFuBusy::No_OpClass                  0      0.00%      0.00% # attempts to use FU when none available (Count)
system.cpu0.statFuBusy::IntAlu               21319662     88.17%     88.17% # attempts to use FU when none available (Count)
system.cpu0.statFuBusy::IntMult                     0      0.00%     88.17% # attempts to use FU when none available (Count)
system.cpu0.statFuBusy::IntDiv                      0      0.00%     88.17% # attempts to use FU when none available (Count)
system.cpu0.statFuBusy::FloatAdd                  800      0.00%     88.18% # attempts to use FU when none available (Count)
system.cpu0.statFuBusy::FloatCmp                    0      0.00%     88.18% # attempts to use FU when none available (Count)
system.cpu0.statFuBusy::FloatCvt                    0      0.00%     88.18% # attempts to use FU when none available (Count)
system.cpu0.statFuBusy::FloatMult                   0      0.00%     88.18% # attempts to use FU when none available (Count)
system.cpu0.statFuBusy::FloatMultAcc                0      0.00%     88.18% # attempts to use FU when none available (Count)
system.cpu0.statFuBusy::FloatDiv                    0      0.00%     88.18% # attempts to use FU when none available (Count)
system.cpu0.statFuBusy::FloatMisc                   0      0.00%     88.18% # attempts to use FU when none available (Count)
system.cpu0.statFuBusy::FloatSqrt                   0      0.00%     88.18% # attempts to use FU when none available (Count)
system.cpu0.statFuBusy::SimdAdd                     0      0.00%     88.18% # attempts to use FU when none available (Count)
system.cpu0.statFuBusy::SimdAddAcc                  0      0.00%     88.18% # attempts to use FU when none available (Count)
system.cpu0.statFuBusy::SimdAlu                801790      3.32%     91.49% # attempts to use FU when none available (Count)
system.cpu0.statFuBusy::SimdCmp                     0      0.00%     91.49% # attempts to use FU when none available (Count)
system.cpu0.statFuBusy::SimdCvt                 10266      0.04%     91.54% # attempts to use FU when none available (Count)
system.cpu0.statFuBusy::SimdMisc              1516749      6.27%     97.81% # attempts to use FU when none available (Count)
system.cpu0.statFuBusy::SimdMult                    0      0.00%     97.81% # attempts to use FU when none available (Count)
system.cpu0.statFuBusy::SimdMultAcc                 0      0.00%     97.81% # attempts to use FU when none available (Count)
system.cpu0.statFuBusy::SimdShift                 387      0.00%     97.81% # attempts to use FU when none available (Count)
system.cpu0.statFuBusy::SimdShiftAcc                0      0.00%     97.81% # attempts to use FU when none available (Count)
system.cpu0.statFuBusy::SimdDiv                     0      0.00%     97.81% # attempts to use FU when none available (Count)
system.cpu0.statFuBusy::SimdSqrt                    0      0.00%     97.81% # attempts to use FU when none available (Count)
system.cpu0.statFuBusy::SimdFloatAdd            11435      0.05%     97.86% # attempts to use FU when none available (Count)
system.cpu0.statFuBusy::SimdFloatAlu                0      0.00%     97.86% # attempts to use FU when none available (Count)
system.cpu0.statFuBusy::SimdFloatCmp                0      0.00%     97.86% # attempts to use FU when none available (Count)
system.cpu0.statFuBusy::SimdFloatCvt                0      0.00%     97.86% # attempts to use FU when none available (Count)
system.cpu0.statFuBusy::SimdFloatDiv                0      0.00%     97.86% # attempts to use FU when none available (Count)
system.cpu0.statFuBusy::SimdFloatMisc               0      0.00%     97.86% # attempts to use FU when none available (Count)
system.cpu0.statFuBusy::SimdFloatMult               1      0.00%     97.86% # attempts to use FU when none available (Count)
system.cpu0.statFuBusy::SimdFloatMultAcc            0      0.00%     97.86% # attempts to use FU when none available (Count)
system.cpu0.statFuBusy::SimdFloatSqrt               0      0.00%     97.86% # attempts to use FU when none available (Count)
system.cpu0.statFuBusy::SimdReduceAdd               0      0.00%     97.86% # attempts to use FU when none available (Count)
system.cpu0.statFuBusy::SimdReduceAlu               0      0.00%     97.86% # attempts to use FU when none available (Count)
system.cpu0.statFuBusy::SimdReduceCmp               0      0.00%     97.86% # attempts to use FU when none available (Count)
system.cpu0.statFuBusy::SimdFloatReduceAdd            0      0.00%     97.86% # attempts to use FU when none available (Count)
system.cpu0.statFuBusy::SimdFloatReduceCmp            0      0.00%     97.86% # attempts to use FU when none available (Count)
system.cpu0.statFuBusy::SimdAes                     0      0.00%     97.86% # attempts to use FU when none available (Count)
system.cpu0.statFuBusy::SimdAesMix                  0      0.00%     97.86% # attempts to use FU when none available (Count)
system.cpu0.statFuBusy::SimdSha1Hash                0      0.00%     97.86% # attempts to use FU when none available (Count)
system.cpu0.statFuBusy::SimdSha1Hash2               0      0.00%     97.86% # attempts to use FU when none available (Count)
system.cpu0.statFuBusy::SimdSha256Hash              0      0.00%     97.86% # attempts to use FU when none available (Count)
system.cpu0.statFuBusy::SimdSha256Hash2             0      0.00%     97.86% # attempts to use FU when none available (Count)
system.cpu0.statFuBusy::SimdShaSigma2               0      0.00%     97.86% # attempts to use FU when none available (Count)
system.cpu0.statFuBusy::SimdShaSigma3               0      0.00%     97.86% # attempts to use FU when none available (Count)
system.cpu0.statFuBusy::SimdPredAlu                 0      0.00%     97.86% # attempts to use FU when none available (Count)
system.cpu0.statFuBusy::MemRead                484338      2.00%     99.86% # attempts to use FU when none available (Count)
system.cpu0.statFuBusy::MemWrite                 3994      0.02%     99.88% # attempts to use FU when none available (Count)
system.cpu0.statFuBusy::FloatMemRead            29043      0.12%    100.00% # attempts to use FU when none available (Count)
system.cpu0.statFuBusy::FloatMemWrite             436      0.00%    100.00% # attempts to use FU when none available (Count)
system.cpu0.statFuBusy::IprAccess                   0      0.00%    100.00% # attempts to use FU when none available (Count)
system.cpu0.statFuBusy::InstPrefetch                0      0.00%    100.00% # attempts to use FU when none available (Count)
system.cpu0.statIssuedInstType_0::No_OpClass     10204505      0.53%      0.53% # Number of instructions issued per FU type, per thread (Count)
system.cpu0.statIssuedInstType_0::IntAlu   1324194600     68.61%     69.14% # Number of instructions issued per FU type, per thread (Count)
system.cpu0.statIssuedInstType_0::IntMult      4448080      0.23%     69.37% # Number of instructions issued per FU type, per thread (Count)
system.cpu0.statIssuedInstType_0::IntDiv         9245      0.00%     69.37% # Number of instructions issued per FU type, per thread (Count)
system.cpu0.statIssuedInstType_0::FloatAdd     28288406      1.47%     70.84% # Number of instructions issued per FU type, per thread (Count)
system.cpu0.statIssuedInstType_0::FloatCmp            0      0.00%     70.84% # Number of instructions issued per FU type, per thread (Count)
system.cpu0.statIssuedInstType_0::FloatCvt          814      0.00%     70.84% # Number of instructions issued per FU type, per thread (Count)
system.cpu0.statIssuedInstType_0::FloatMult            0      0.00%     70.84% # Number of instructions issued per FU type, per thread (Count)
system.cpu0.statIssuedInstType_0::FloatMultAcc            0      0.00%     70.84% # Number of instructions issued per FU type, per thread (Count)
system.cpu0.statIssuedInstType_0::FloatDiv            0      0.00%     70.84% # Number of instructions issued per FU type, per thread (Count)
system.cpu0.statIssuedInstType_0::FloatMisc            0      0.00%     70.84% # Number of instructions issued per FU type, per thread (Count)
system.cpu0.statIssuedInstType_0::FloatSqrt            0      0.00%     70.84% # Number of instructions issued per FU type, per thread (Count)
system.cpu0.statIssuedInstType_0::SimdAdd        34210      0.00%     70.84% # Number of instructions issued per FU type, per thread (Count)
system.cpu0.statIssuedInstType_0::SimdAddAcc            0      0.00%     70.84% # Number of instructions issued per FU type, per thread (Count)
system.cpu0.statIssuedInstType_0::SimdAlu     50184489      2.60%     73.44% # Number of instructions issued per FU type, per thread (Count)
system.cpu0.statIssuedInstType_0::SimdCmp            0      0.00%     73.44% # Number of instructions issued per FU type, per thread (Count)
system.cpu0.statIssuedInstType_0::SimdCvt       220609      0.01%     73.45% # Number of instructions issued per FU type, per thread (Count)
system.cpu0.statIssuedInstType_0::SimdMisc     29657628      1.54%     74.99% # Number of instructions issued per FU type, per thread (Count)
system.cpu0.statIssuedInstType_0::SimdMult            0      0.00%     74.99% # Number of instructions issued per FU type, per thread (Count)
system.cpu0.statIssuedInstType_0::SimdMultAcc            0      0.00%     74.99% # Number of instructions issued per FU type, per thread (Count)
system.cpu0.statIssuedInstType_0::SimdShift        13732      0.00%     74.99% # Number of instructions issued per FU type, per thread (Count)
system.cpu0.statIssuedInstType_0::SimdShiftAcc            0      0.00%     74.99% # Number of instructions issued per FU type, per thread (Count)
system.cpu0.statIssuedInstType_0::SimdDiv            0      0.00%     74.99% # Number of instructions issued per FU type, per thread (Count)
system.cpu0.statIssuedInstType_0::SimdSqrt            0      0.00%     74.99% # Number of instructions issued per FU type, per thread (Count)
system.cpu0.statIssuedInstType_0::SimdFloatAdd     29664625      1.54%     76.53% # Number of instructions issued per FU type, per thread (Count)
system.cpu0.statIssuedInstType_0::SimdFloatAlu            0      0.00%     76.53% # Number of instructions issued per FU type, per thread (Count)
system.cpu0.statIssuedInstType_0::SimdFloatCmp          758      0.00%     76.53% # Number of instructions issued per FU type, per thread (Count)
system.cpu0.statIssuedInstType_0::SimdFloatCvt     40603927      2.10%     78.63% # Number of instructions issued per FU type, per thread (Count)
system.cpu0.statIssuedInstType_0::SimdFloatDiv         4687      0.00%     78.63% # Number of instructions issued per FU type, per thread (Count)
system.cpu0.statIssuedInstType_0::SimdFloatMisc            0      0.00%     78.63% # Number of instructions issued per FU type, per thread (Count)
system.cpu0.statIssuedInstType_0::SimdFloatMult     24959209      1.29%     79.92% # Number of instructions issued per FU type, per thread (Count)
system.cpu0.statIssuedInstType_0::SimdFloatMultAcc            0      0.00%     79.92% # Number of instructions issued per FU type, per thread (Count)
system.cpu0.statIssuedInstType_0::SimdFloatSqrt            0      0.00%     79.92% # Number of instructions issued per FU type, per thread (Count)
system.cpu0.statIssuedInstType_0::SimdReduceAdd            0      0.00%     79.92% # Number of instructions issued per FU type, per thread (Count)
system.cpu0.statIssuedInstType_0::SimdReduceAlu            0      0.00%     79.92% # Number of instructions issued per FU type, per thread (Count)
system.cpu0.statIssuedInstType_0::SimdReduceCmp            0      0.00%     79.92% # Number of instructions issued per FU type, per thread (Count)
system.cpu0.statIssuedInstType_0::SimdFloatReduceAdd            0      0.00%     79.92% # Number of instructions issued per FU type, per thread (Count)
system.cpu0.statIssuedInstType_0::SimdFloatReduceCmp            0      0.00%     79.92% # Number of instructions issued per FU type, per thread (Count)
system.cpu0.statIssuedInstType_0::SimdAes            0      0.00%     79.92% # Number of instructions issued per FU type, per thread (Count)
system.cpu0.statIssuedInstType_0::SimdAesMix            0      0.00%     79.92% # Number of instructions issued per FU type, per thread (Count)
system.cpu0.statIssuedInstType_0::SimdSha1Hash            0      0.00%     79.92% # Number of instructions issued per FU type, per thread (Count)
system.cpu0.statIssuedInstType_0::SimdSha1Hash2            0      0.00%     79.92% # Number of instructions issued per FU type, per thread (Count)
system.cpu0.statIssuedInstType_0::SimdSha256Hash            0      0.00%     79.92% # Number of instructions issued per FU type, per thread (Count)
system.cpu0.statIssuedInstType_0::SimdSha256Hash2            0      0.00%     79.92% # Number of instructions issued per FU type, per thread (Count)
system.cpu0.statIssuedInstType_0::SimdShaSigma2            0      0.00%     79.92% # Number of instructions issued per FU type, per thread (Count)
system.cpu0.statIssuedInstType_0::SimdShaSigma3            0      0.00%     79.92% # Number of instructions issued per FU type, per thread (Count)
system.cpu0.statIssuedInstType_0::SimdPredAlu            0      0.00%     79.92% # Number of instructions issued per FU type, per thread (Count)
system.cpu0.statIssuedInstType_0::MemRead    239912780     12.43%     92.36% # Number of instructions issued per FU type, per thread (Count)
system.cpu0.statIssuedInstType_0::MemWrite    123544189      6.40%     98.76% # Number of instructions issued per FU type, per thread (Count)
system.cpu0.statIssuedInstType_0::FloatMemRead     23903059      1.24%    100.00% # Number of instructions issued per FU type, per thread (Count)
system.cpu0.statIssuedInstType_0::FloatMemWrite        77631      0.00%    100.00% # Number of instructions issued per FU type, per thread (Count)
system.cpu0.statIssuedInstType_0::IprAccess            0      0.00%    100.00% # Number of instructions issued per FU type, per thread (Count)
system.cpu0.statIssuedInstType_0::InstPrefetch            0      0.00%    100.00% # Number of instructions issued per FU type, per thread (Count)
system.cpu0.statIssuedInstType_0::total    1929927183                       # Number of instructions issued per FU type, per thread (Count)
system.cpu0.issueRate                        2.085016                       # Inst issue rate ((Count/Cycle))
system.cpu0.fuBusy                           24178901                       # FU busy when requested (Count)
system.cpu0.fuBusyRate                       0.012528                       # FU busy rate (busy events/executed inst) ((Count/Count))
system.cpu0.intInstQueueReads              4351300532                       # Number of integer instruction queue reads (Count)
system.cpu0.intInstQueueWrites             1705053070                       # Number of integer instruction queue writes (Count)
system.cpu0.intInstQueueWakeupAccesses     1698650831                       # Number of integer instruction queue wakeup accesses (Count)
system.cpu0.fpInstQueueReads                458027777                       # Number of floating instruction queue reads (Count)
system.cpu0.fpInstQueueWrites               229350363                       # Number of floating instruction queue writes (Count)
system.cpu0.fpInstQueueWakeupAccesses       227629520                       # Number of floating instruction queue wakeup accesses (Count)
system.cpu0.vecInstQueueReads                       0                       # Number of vector instruction queue reads (Count)
system.cpu0.vecInstQueueWrites                      0                       # Number of vector instruction queue writes (Count)
system.cpu0.vecInstQueueWakeupAccesses              0                       # Number of vector instruction queue wakeup accesses (Count)
system.cpu0.intAluAccesses                 1713748211                       # Number of integer alu accesses (Count)
system.cpu0.fpAluAccesses                   230153368                       # Number of floating point alu accesses (Count)
system.cpu0.vecAluAccesses                          0                       # Number of vector alu accesses (Count)
system.cpu0.numInsts                       1929721373                       # Number of executed instructions (Count)
system.cpu0.numLoadInsts                    263768571                       # Number of load instructions executed (Count)
system.cpu0.numSquashedInsts                   205808                       # Number of squashed instructions skipped in execute (Count)
system.cpu0.numSwp                                  0                       # Number of swp insts executed (Count)
system.cpu0.numNop                                  0                       # Number of nop insts executed (Count)
system.cpu0.numRefs                         387362233                       # Number of memory reference insts executed (Count)
system.cpu0.numBranches                     191523015                       # Number of branches executed (Count)
system.cpu0.numStoreInsts                   123593662                       # Number of stores executed (Count)
system.cpu0.numRate                          2.084793                       # Inst execution rate ((Count/Cycle))
system.cpu0.timesIdled                           4522                       # Number of times that the entire CPU went into an idle state and unscheduled itself (Count)
system.cpu0.idleCycles                         449715                       # Total number of cycles that the CPU has spent unscheduled due to idling (Cycle)
system.cpu0.committedInsts                 1000000000                       # Number of Instructions Simulated (Count)
system.cpu0.committedOps                   1921829464                       # Number of Ops (including micro ops) Simulated (Count)
system.cpu0.cpi                              0.925618                       # CPI: Cycles Per Instruction ((Cycle/Count))
system.cpu0.totalCpi                         0.925618                       # CPI: Total CPI of All Threads ((Cycle/Count))
system.cpu0.ipc                              1.080360                       # IPC: Instructions Per Cycle ((Count/Cycle))
system.cpu0.totalIpc                         1.080360                       # IPC: Total IPC of All Threads ((Count/Cycle))
system.cpu0.intRegfileReads                2219955700                       # Number of integer regfile reads (Count)
system.cpu0.intRegfileWrites               1266500775                       # Number of integer regfile writes (Count)
system.cpu0.fpRegfileReads                  376329661                       # Number of floating regfile reads (Count)
system.cpu0.fpRegfileWrites                 211885667                       # Number of floating regfile writes (Count)
system.cpu0.ccRegfileReads                  857563678                       # number of cc regfile reads (Count)
system.cpu0.ccRegfileWrites                 526790243                       # number of cc regfile writes (Count)
system.cpu0.miscRegfileReads                782720637                       # number of misc regfile reads (Count)
system.cpu0.miscRegfileWrites                     315                       # number of misc regfile writes (Count)
system.cpu0.MemDepUnit__0.insertedLoads     260603781                       # Number of loads inserted to the mem dependence unit. (Count)
system.cpu0.MemDepUnit__0.insertedStores    123750168                       # Number of stores inserted to the mem dependence unit. (Count)
system.cpu0.MemDepUnit__0.conflictingLoads     11513528                       # Number of conflicting loads. (Count)
system.cpu0.MemDepUnit__0.conflictingStores      6437277                       # Number of conflicting stores. (Count)
system.cpu0.MemDepUnit__1.insertedLoads             0                       # Number of loads inserted to the mem dependence unit. (Count)
system.cpu0.MemDepUnit__1.insertedStores            0                       # Number of stores inserted to the mem dependence unit. (Count)
system.cpu0.MemDepUnit__1.conflictingLoads            0                       # Number of conflicting loads. (Count)
system.cpu0.MemDepUnit__1.conflictingStores            0                       # Number of conflicting stores. (Count)
system.cpu0.MemDepUnit__2.insertedLoads             0                       # Number of loads inserted to the mem dependence unit. (Count)
system.cpu0.MemDepUnit__2.insertedStores            0                       # Number of stores inserted to the mem dependence unit. (Count)
system.cpu0.MemDepUnit__2.conflictingLoads            0                       # Number of conflicting loads. (Count)
system.cpu0.MemDepUnit__2.conflictingStores            0                       # Number of conflicting stores. (Count)
system.cpu0.MemDepUnit__3.insertedLoads             0                       # Number of loads inserted to the mem dependence unit. (Count)
system.cpu0.MemDepUnit__3.insertedStores            0                       # Number of stores inserted to the mem dependence unit. (Count)
system.cpu0.MemDepUnit__3.conflictingLoads            0                       # Number of conflicting loads. (Count)
system.cpu0.MemDepUnit__3.conflictingStores            0                       # Number of conflicting stores. (Count)
system.cpu0.branchPred.lookups              192079266                       # Number of BP lookups (Count)
system.cpu0.branchPred.condPredicted        145231912                       # Number of conditional branches predicted (Count)
system.cpu0.branchPred.condIncorrect            69675                       # Number of conditional branches incorrect (Count)
system.cpu0.branchPred.BTBLookups            85995434                       # Number of BTB lookups (Count)
system.cpu0.branchPred.BTBHits               85975474                       # Number of BTB hits (Count)
system.cpu0.branchPred.BTBHitRatio           0.999768                       # BTB Hit Ratio (Ratio)
system.cpu0.branchPred.RASUsed               11796045                       # Number of times the RAS was used to get a target. (Count)
system.cpu0.branchPred.RASIncorrect                36                       # Number of incorrect RAS predictions. (Count)
system.cpu0.branchPred.indirectLookups        8911164                       # Number of indirect predictor lookups. (Count)
system.cpu0.branchPred.indirectHits           8897408                       # Number of indirect target hits. (Count)
system.cpu0.branchPred.indirectMisses           13756                       # Number of indirect misses. (Count)
system.cpu0.branchPred.indirectMispredicted         5141                       # Number of mispredicted indirect branches. (Count)
system.cpu0.commit.commitSquashedInsts        5954768                       # The number of squashed insts skipped by commit (Count)
system.cpu0.commit.commitNonSpecStalls            615                       # The number of times commit has been forced to stall to communicate backwards (Count)
system.cpu0.commit.branchMispredicts            65950                       # The number of times a branch was mispredicted (Count)
system.cpu0.commit.numCommittedDist::samples    924370519                       # Number of insts commited each cycle (Count)
system.cpu0.commit.numCommittedDist::mean     2.079068                       # Number of insts commited each cycle (Count)
system.cpu0.commit.numCommittedDist::stdev     3.068252                       # Number of insts commited each cycle (Count)
system.cpu0.commit.numCommittedDist::underflows            0      0.00%      0.00% # Number of insts commited each cycle (Count)
system.cpu0.commit.numCommittedDist::0      522773788     56.55%     56.55% # Number of insts commited each cycle (Count)
system.cpu0.commit.numCommittedDist::1       92171573      9.97%     66.53% # Number of insts commited each cycle (Count)
system.cpu0.commit.numCommittedDist::2       38268512      4.14%     70.67% # Number of insts commited each cycle (Count)
system.cpu0.commit.numCommittedDist::3       47884113      5.18%     75.85% # Number of insts commited each cycle (Count)
system.cpu0.commit.numCommittedDist::4       20718472      2.24%     78.09% # Number of insts commited each cycle (Count)
system.cpu0.commit.numCommittedDist::5       16775053      1.81%     79.90% # Number of insts commited each cycle (Count)
system.cpu0.commit.numCommittedDist::6       16776968      1.81%     81.72% # Number of insts commited each cycle (Count)
system.cpu0.commit.numCommittedDist::7        9958753      1.08%     82.79% # Number of insts commited each cycle (Count)
system.cpu0.commit.numCommittedDist::8      159043287     17.21%    100.00% # Number of insts commited each cycle (Count)
system.cpu0.commit.numCommittedDist::overflows            0      0.00%    100.00% # Number of insts commited each cycle (Count)
system.cpu0.commit.numCommittedDist::min_value            0                       # Number of insts commited each cycle (Count)
system.cpu0.commit.numCommittedDist::max_value            8                       # Number of insts commited each cycle (Count)
system.cpu0.commit.numCommittedDist::total    924370519                       # Number of insts commited each cycle (Count)
system.cpu0.commit.instsCommitted          1000000000                       # Number of instructions committed (Count)
system.cpu0.commit.opsCommitted            1921829464                       # Number of ops (including micro ops) committed (Count)
system.cpu0.commit.memRefs                  383255504                       # Number of memory references committed (Count)
system.cpu0.commit.loads                    259834904                       # Number of loads committed (Count)
system.cpu0.commit.amos                             0                       # Number of atomic instructions committed (Count)
system.cpu0.commit.membars                        200                       # Number of memory barriers committed (Count)
system.cpu0.commit.branches                 191118706                       # Number of branches committed (Count)
system.cpu0.commit.vectorInstructions               0                       # Number of committed Vector instructions. (Count)
system.cpu0.commit.floating                 227027835                       # Number of committed floating point instructions. (Count)
system.cpu0.commit.integer                 1737877619                       # Number of committed integer instructions. (Count)
system.cpu0.commit.functionCalls             11751296                       # Number of function calls committed. (Count)
system.cpu0.commit.committedInstType_0::No_OpClass     10188157      0.53%      0.53% # Class of committed instruction (Count)
system.cpu0.commit.committedInstType_0::IntAlu   1320701954     68.72%     69.25% # Class of committed instruction (Count)
system.cpu0.commit.committedInstType_0::IntMult      4442264      0.23%     69.48% # Class of committed instruction (Count)
system.cpu0.commit.committedInstType_0::IntDiv         5355      0.00%     69.48% # Class of committed instruction (Count)
system.cpu0.commit.committedInstType_0::FloatAdd     28193665      1.47%     70.95% # Class of committed instruction (Count)
system.cpu0.commit.committedInstType_0::FloatCmp            0      0.00%     70.95% # Class of committed instruction (Count)
system.cpu0.commit.committedInstType_0::FloatCvt          560      0.00%     70.95% # Class of committed instruction (Count)
system.cpu0.commit.committedInstType_0::FloatMult            0      0.00%     70.95% # Class of committed instruction (Count)
system.cpu0.commit.committedInstType_0::FloatMultAcc            0      0.00%     70.95% # Class of committed instruction (Count)
system.cpu0.commit.committedInstType_0::FloatDiv            0      0.00%     70.95% # Class of committed instruction (Count)
system.cpu0.commit.committedInstType_0::FloatMisc            0      0.00%     70.95% # Class of committed instruction (Count)
system.cpu0.commit.committedInstType_0::FloatSqrt            0      0.00%     70.95% # Class of committed instruction (Count)
system.cpu0.commit.committedInstType_0::SimdAdd        26860      0.00%     70.95% # Class of committed instruction (Count)
system.cpu0.commit.committedInstType_0::SimdAddAcc            0      0.00%     70.95% # Class of committed instruction (Count)
system.cpu0.commit.committedInstType_0::SimdAlu     50104871      2.61%     73.56% # Class of committed instruction (Count)
system.cpu0.commit.committedInstType_0::SimdCmp            0      0.00%     73.56% # Class of committed instruction (Count)
system.cpu0.commit.committedInstType_0::SimdCvt       163642      0.01%     73.57% # Class of committed instruction (Count)
system.cpu0.commit.committedInstType_0::SimdMisc     29627728      1.54%     75.11% # Class of committed instruction (Count)
system.cpu0.commit.committedInstType_0::SimdMult            0      0.00%     75.11% # Class of committed instruction (Count)
system.cpu0.commit.committedInstType_0::SimdMultAcc            0      0.00%     75.11% # Class of committed instruction (Count)
system.cpu0.commit.committedInstType_0::SimdShift         6766      0.00%     75.11% # Class of committed instruction (Count)
system.cpu0.commit.committedInstType_0::SimdShiftAcc            0      0.00%     75.11% # Class of committed instruction (Count)
system.cpu0.commit.committedInstType_0::SimdDiv            0      0.00%     75.11% # Class of committed instruction (Count)
system.cpu0.commit.committedInstType_0::SimdSqrt            0      0.00%     75.11% # Class of committed instruction (Count)
system.cpu0.commit.committedInstType_0::SimdFloatAdd     29609839      1.54%     76.65% # Class of committed instruction (Count)
system.cpu0.commit.committedInstType_0::SimdFloatAlu            0      0.00%     76.65% # Class of committed instruction (Count)
system.cpu0.commit.committedInstType_0::SimdFloatCmp          758      0.00%     76.65% # Class of committed instruction (Count)
system.cpu0.commit.committedInstType_0::SimdFloatCvt     40537682      2.11%     78.76% # Class of committed instruction (Count)
system.cpu0.commit.committedInstType_0::SimdFloatDiv         4672      0.00%     78.76% # Class of committed instruction (Count)
system.cpu0.commit.committedInstType_0::SimdFloatMisc            0      0.00%     78.76% # Class of committed instruction (Count)
system.cpu0.commit.committedInstType_0::SimdFloatMult     24959187      1.30%     80.06% # Class of committed instruction (Count)
system.cpu0.commit.committedInstType_0::SimdFloatMultAcc            0      0.00%     80.06% # Class of committed instruction (Count)
system.cpu0.commit.committedInstType_0::SimdFloatSqrt            0      0.00%     80.06% # Class of committed instruction (Count)
system.cpu0.commit.committedInstType_0::SimdReduceAdd            0      0.00%     80.06% # Class of committed instruction (Count)
system.cpu0.commit.committedInstType_0::SimdReduceAlu            0      0.00%     80.06% # Class of committed instruction (Count)
system.cpu0.commit.committedInstType_0::SimdReduceCmp            0      0.00%     80.06% # Class of committed instruction (Count)
system.cpu0.commit.committedInstType_0::SimdFloatReduceAdd            0      0.00%     80.06% # Class of committed instruction (Count)
system.cpu0.commit.committedInstType_0::SimdFloatReduceCmp            0      0.00%     80.06% # Class of committed instruction (Count)
system.cpu0.commit.committedInstType_0::SimdAes            0      0.00%     80.06% # Class of committed instruction (Count)
system.cpu0.commit.committedInstType_0::SimdAesMix            0      0.00%     80.06% # Class of committed instruction (Count)
system.cpu0.commit.committedInstType_0::SimdSha1Hash            0      0.00%     80.06% # Class of committed instruction (Count)
system.cpu0.commit.committedInstType_0::SimdSha1Hash2            0      0.00%     80.06% # Class of committed instruction (Count)
system.cpu0.commit.committedInstType_0::SimdSha256Hash            0      0.00%     80.06% # Class of committed instruction (Count)
system.cpu0.commit.committedInstType_0::SimdSha256Hash2            0      0.00%     80.06% # Class of committed instruction (Count)
system.cpu0.commit.committedInstType_0::SimdShaSigma2            0      0.00%     80.06% # Class of committed instruction (Count)
system.cpu0.commit.committedInstType_0::SimdShaSigma3            0      0.00%     80.06% # Class of committed instruction (Count)
system.cpu0.commit.committedInstType_0::SimdPredAlu            0      0.00%     80.06% # Class of committed instruction (Count)
system.cpu0.commit.committedInstType_0::MemRead    236239656     12.29%     92.35% # Class of committed instruction (Count)
system.cpu0.commit.committedInstType_0::MemWrite    123346933      6.42%     98.77% # Class of committed instruction (Count)
system.cpu0.commit.committedInstType_0::FloatMemRead     23595248      1.23%    100.00% # Class of committed instruction (Count)
system.cpu0.commit.committedInstType_0::FloatMemWrite        73667      0.00%    100.00% # Class of committed instruction (Count)
system.cpu0.commit.committedInstType_0::IprAccess            0      0.00%    100.00% # Class of committed instruction (Count)
system.cpu0.commit.committedInstType_0::InstPrefetch            0      0.00%    100.00% # Class of committed instruction (Count)
system.cpu0.commit.committedInstType_0::total   1921829464                       # Class of committed instruction (Count)
system.cpu0.commit.commitEligibleSamples    159043287                       # number cycles where commit BW limit reached (Cycle)
system.cpu0.dcache.demandHits::cpu0.data    319300428                       # number of demand (read+write) hits (Count)
system.cpu0.dcache.demandHits::total        319300428                       # number of demand (read+write) hits (Count)
system.cpu0.dcache.overallHits::cpu0.data    319300428                       # number of overall hits (Count)
system.cpu0.dcache.overallHits::total       319300428                       # number of overall hits (Count)
system.cpu0.dcache.demandMisses::cpu0.data     11907675                       # number of demand (read+write) misses (Count)
system.cpu0.dcache.demandMisses::total       11907675                       # number of demand (read+write) misses (Count)
system.cpu0.dcache.overallMisses::cpu0.data     11907675                       # number of overall misses (Count)
system.cpu0.dcache.overallMisses::total      11907675                       # number of overall misses (Count)
system.cpu0.dcache.demandMissLatency::cpu0.data 895501631017                       # number of demand (read+write) miss ticks (Tick)
system.cpu0.dcache.demandMissLatency::total 895501631017                       # number of demand (read+write) miss ticks (Tick)
system.cpu0.dcache.overallMissLatency::cpu0.data 895501631017                       # number of overall miss ticks (Tick)
system.cpu0.dcache.overallMissLatency::total 895501631017                       # number of overall miss ticks (Tick)
system.cpu0.dcache.demandAccesses::cpu0.data    331208103                       # number of demand (read+write) accesses (Count)
system.cpu0.dcache.demandAccesses::total    331208103                       # number of demand (read+write) accesses (Count)
system.cpu0.dcache.overallAccesses::cpu0.data    331208103                       # number of overall (read+write) accesses (Count)
system.cpu0.dcache.overallAccesses::total    331208103                       # number of overall (read+write) accesses (Count)
system.cpu0.dcache.demandMissRate::cpu0.data     0.035952                       # miss rate for demand accesses (Ratio)
system.cpu0.dcache.demandMissRate::total     0.035952                       # miss rate for demand accesses (Ratio)
system.cpu0.dcache.overallMissRate::cpu0.data     0.035952                       # miss rate for overall accesses (Ratio)
system.cpu0.dcache.overallMissRate::total     0.035952                       # miss rate for overall accesses (Ratio)
system.cpu0.dcache.demandAvgMissLatency::cpu0.data 75203.734652                       # average overall miss latency in ticks ((Tick/Count))
system.cpu0.dcache.demandAvgMissLatency::total 75203.734652                       # average overall miss latency in ticks ((Tick/Count))
system.cpu0.dcache.overallAvgMissLatency::cpu0.data 75203.734652                       # average overall miss latency ((Tick/Count))
system.cpu0.dcache.overallAvgMissLatency::total 75203.734652                       # average overall miss latency ((Tick/Count))
system.cpu0.dcache.blockedCycles::no_mshrs     91120836                       # number of cycles access was blocked (Cycle)
system.cpu0.dcache.blockedCycles::no_targets         1552                       # number of cycles access was blocked (Cycle)
system.cpu0.dcache.blockedCauses::no_mshrs       787926                       # number of times access was blocked (Count)
system.cpu0.dcache.blockedCauses::no_targets           12                       # number of times access was blocked (Count)
system.cpu0.dcache.avgBlocked::no_mshrs    115.646439                       # average number of cycles each access was blocked ((Cycle/Count))
system.cpu0.dcache.avgBlocked::no_targets   129.333333                       # average number of cycles each access was blocked ((Cycle/Count))
system.cpu0.dcache.writebacks::writebacks      2923245                       # number of writebacks (Count)
system.cpu0.dcache.writebacks::total          2923245                       # number of writebacks (Count)
system.cpu0.dcache.demandMshrHits::cpu0.data      5785148                       # number of demand (read+write) MSHR hits (Count)
system.cpu0.dcache.demandMshrHits::total      5785148                       # number of demand (read+write) MSHR hits (Count)
system.cpu0.dcache.overallMshrHits::cpu0.data      5785148                       # number of overall MSHR hits (Count)
system.cpu0.dcache.overallMshrHits::total      5785148                       # number of overall MSHR hits (Count)
system.cpu0.dcache.demandMshrMisses::cpu0.data      6122527                       # number of demand (read+write) MSHR misses (Count)
system.cpu0.dcache.demandMshrMisses::total      6122527                       # number of demand (read+write) MSHR misses (Count)
system.cpu0.dcache.overallMshrMisses::cpu0.data      6122527                       # number of overall MSHR misses (Count)
system.cpu0.dcache.overallMshrMisses::total      6122527                       # number of overall MSHR misses (Count)
system.cpu0.dcache.demandMshrMissLatency::cpu0.data 491272959517                       # number of demand (read+write) MSHR miss ticks (Tick)
system.cpu0.dcache.demandMshrMissLatency::total 491272959517                       # number of demand (read+write) MSHR miss ticks (Tick)
system.cpu0.dcache.overallMshrMissLatency::cpu0.data 491272959517                       # number of overall MSHR miss ticks (Tick)
system.cpu0.dcache.overallMshrMissLatency::total 491272959517                       # number of overall MSHR miss ticks (Tick)
system.cpu0.dcache.demandMshrMissRate::cpu0.data     0.018485                       # mshr miss ratio for demand accesses (Ratio)
system.cpu0.dcache.demandMshrMissRate::total     0.018485                       # mshr miss ratio for demand accesses (Ratio)
system.cpu0.dcache.overallMshrMissRate::cpu0.data     0.018485                       # mshr miss ratio for overall accesses (Ratio)
system.cpu0.dcache.overallMshrMissRate::total     0.018485                       # mshr miss ratio for overall accesses (Ratio)
system.cpu0.dcache.demandAvgMshrMissLatency::cpu0.data 80240.227526                       # average overall mshr miss latency ((Tick/Count))
system.cpu0.dcache.demandAvgMshrMissLatency::total 80240.227526                       # average overall mshr miss latency ((Tick/Count))
system.cpu0.dcache.overallAvgMshrMissLatency::cpu0.data 80240.227526                       # average overall mshr miss latency ((Tick/Count))
system.cpu0.dcache.overallAvgMshrMissLatency::total 80240.227526                       # average overall mshr miss latency ((Tick/Count))
system.cpu0.dcache.replacements               6122012                       # number of replacements (Count)
system.cpu0.dcache.LockedRMWReadReq.hits::cpu0.data          100                       # number of LockedRMWReadReq hits (Count)
system.cpu0.dcache.LockedRMWReadReq.hits::total          100                       # number of LockedRMWReadReq hits (Count)
system.cpu0.dcache.LockedRMWReadReq.accesses::cpu0.data          100                       # number of LockedRMWReadReq accesses(hits+misses) (Count)
system.cpu0.dcache.LockedRMWReadReq.accesses::total          100                       # number of LockedRMWReadReq accesses(hits+misses) (Count)
system.cpu0.dcache.LockedRMWReadReq.mshrMissLatency::cpu0.data       300000                       # number of LockedRMWReadReq MSHR miss ticks (Tick)
system.cpu0.dcache.LockedRMWReadReq.mshrMissLatency::total       300000                       # number of LockedRMWReadReq MSHR miss ticks (Tick)
system.cpu0.dcache.LockedRMWReadReq.avgMshrMissLatency::cpu0.data          inf                       # average LockedRMWReadReq mshr miss latency ((Tick/Count))
system.cpu0.dcache.LockedRMWReadReq.avgMshrMissLatency::total          inf                       # average LockedRMWReadReq mshr miss latency ((Tick/Count))
system.cpu0.dcache.LockedRMWWriteReq.hits::cpu0.data          100                       # number of LockedRMWWriteReq hits (Count)
system.cpu0.dcache.LockedRMWWriteReq.hits::total          100                       # number of LockedRMWWriteReq hits (Count)
system.cpu0.dcache.LockedRMWWriteReq.accesses::cpu0.data          100                       # number of LockedRMWWriteReq accesses(hits+misses) (Count)
system.cpu0.dcache.LockedRMWWriteReq.accesses::total          100                       # number of LockedRMWWriteReq accesses(hits+misses) (Count)
system.cpu0.dcache.ReadReq.hits::cpu0.data    198789901                       # number of ReadReq hits (Count)
system.cpu0.dcache.ReadReq.hits::total      198789901                       # number of ReadReq hits (Count)
system.cpu0.dcache.ReadReq.misses::cpu0.data      8997677                       # number of ReadReq misses (Count)
system.cpu0.dcache.ReadReq.misses::total      8997677                       # number of ReadReq misses (Count)
system.cpu0.dcache.ReadReq.missLatency::cpu0.data 663562440500                       # number of ReadReq miss ticks (Tick)
system.cpu0.dcache.ReadReq.missLatency::total 663562440500                       # number of ReadReq miss ticks (Tick)
system.cpu0.dcache.ReadReq.accesses::cpu0.data    207787578                       # number of ReadReq accesses(hits+misses) (Count)
system.cpu0.dcache.ReadReq.accesses::total    207787578                       # number of ReadReq accesses(hits+misses) (Count)
system.cpu0.dcache.ReadReq.missRate::cpu0.data     0.043302                       # miss rate for ReadReq accesses (Ratio)
system.cpu0.dcache.ReadReq.missRate::total     0.043302                       # miss rate for ReadReq accesses (Ratio)
system.cpu0.dcache.ReadReq.avgMissLatency::cpu0.data 73748.195284                       # average ReadReq miss latency ((Tick/Count))
system.cpu0.dcache.ReadReq.avgMissLatency::total 73748.195284                       # average ReadReq miss latency ((Tick/Count))
system.cpu0.dcache.ReadReq.mshrHits::cpu0.data      5784790                       # number of ReadReq MSHR hits (Count)
system.cpu0.dcache.ReadReq.mshrHits::total      5784790                       # number of ReadReq MSHR hits (Count)
system.cpu0.dcache.ReadReq.mshrMisses::cpu0.data      3212887                       # number of ReadReq MSHR misses (Count)
system.cpu0.dcache.ReadReq.mshrMisses::total      3212887                       # number of ReadReq MSHR misses (Count)
system.cpu0.dcache.ReadReq.mshrMissLatency::cpu0.data 262252916000                       # number of ReadReq MSHR miss ticks (Tick)
system.cpu0.dcache.ReadReq.mshrMissLatency::total 262252916000                       # number of ReadReq MSHR miss ticks (Tick)
system.cpu0.dcache.ReadReq.mshrMissRate::cpu0.data     0.015462                       # mshr miss rate for ReadReq accesses (Ratio)
system.cpu0.dcache.ReadReq.mshrMissRate::total     0.015462                       # mshr miss rate for ReadReq accesses (Ratio)
system.cpu0.dcache.ReadReq.avgMshrMissLatency::cpu0.data 81625.315799                       # average ReadReq mshr miss latency ((Tick/Count))
system.cpu0.dcache.ReadReq.avgMshrMissLatency::total 81625.315799                       # average ReadReq mshr miss latency ((Tick/Count))
system.cpu0.dcache.WriteReq.hits::cpu0.data    120510527                       # number of WriteReq hits (Count)
system.cpu0.dcache.WriteReq.hits::total     120510527                       # number of WriteReq hits (Count)
system.cpu0.dcache.WriteReq.misses::cpu0.data      2909998                       # number of WriteReq misses (Count)
system.cpu0.dcache.WriteReq.misses::total      2909998                       # number of WriteReq misses (Count)
system.cpu0.dcache.WriteReq.missLatency::cpu0.data 231939190517                       # number of WriteReq miss ticks (Tick)
system.cpu0.dcache.WriteReq.missLatency::total 231939190517                       # number of WriteReq miss ticks (Tick)
system.cpu0.dcache.WriteReq.accesses::cpu0.data    123420525                       # number of WriteReq accesses(hits+misses) (Count)
system.cpu0.dcache.WriteReq.accesses::total    123420525                       # number of WriteReq accesses(hits+misses) (Count)
system.cpu0.dcache.WriteReq.missRate::cpu0.data     0.023578                       # miss rate for WriteReq accesses (Ratio)
system.cpu0.dcache.WriteReq.missRate::total     0.023578                       # miss rate for WriteReq accesses (Ratio)
system.cpu0.dcache.WriteReq.avgMissLatency::cpu0.data 79704.243961                       # average WriteReq miss latency ((Tick/Count))
system.cpu0.dcache.WriteReq.avgMissLatency::total 79704.243961                       # average WriteReq miss latency ((Tick/Count))
system.cpu0.dcache.WriteReq.mshrHits::cpu0.data          358                       # number of WriteReq MSHR hits (Count)
system.cpu0.dcache.WriteReq.mshrHits::total          358                       # number of WriteReq MSHR hits (Count)
system.cpu0.dcache.WriteReq.mshrMisses::cpu0.data      2909640                       # number of WriteReq MSHR misses (Count)
system.cpu0.dcache.WriteReq.mshrMisses::total      2909640                       # number of WriteReq MSHR misses (Count)
system.cpu0.dcache.WriteReq.mshrMissLatency::cpu0.data 229020043517                       # number of WriteReq MSHR miss ticks (Tick)
system.cpu0.dcache.WriteReq.mshrMissLatency::total 229020043517                       # number of WriteReq MSHR miss ticks (Tick)
system.cpu0.dcache.WriteReq.mshrMissRate::cpu0.data     0.023575                       # mshr miss rate for WriteReq accesses (Ratio)
system.cpu0.dcache.WriteReq.mshrMissRate::total     0.023575                       # mshr miss rate for WriteReq accesses (Ratio)
system.cpu0.dcache.WriteReq.avgMshrMissLatency::cpu0.data 78710.783299                       # average WriteReq mshr miss latency ((Tick/Count))
system.cpu0.dcache.WriteReq.avgMshrMissLatency::total 78710.783299                       # average WriteReq mshr miss latency ((Tick/Count))
system.cpu0.dcache.power_state.pwrStateResidencyTicks::UNDEFINED 462808817000                       # Cumulative time (in ticks) in various power states (Tick)
system.cpu0.dcache.tags.tagsInUse          511.970268                       # Average ticks per tags in use ((Tick/Count))
system.cpu0.dcache.tags.totalRefs           325423154                       # Total number of references to valid blocks. (Count)
system.cpu0.dcache.tags.sampledRefs           6122524                       # Sample count of references to valid blocks. (Count)
system.cpu0.dcache.tags.avgRefs             53.151797                       # Average number of references to valid blocks. ((Count/Count))
system.cpu0.dcache.tags.warmupTick             148000                       # The tick when the warmup percentage was hit. (Tick)
system.cpu0.dcache.tags.occupancies::cpu0.data   511.970268                       # Average occupied blocks per tick, per requestor ((Count/Tick))
system.cpu0.dcache.tags.avgOccs::cpu0.data     0.999942                       # Average percentage of cache occupancy ((Ratio/Tick))
system.cpu0.dcache.tags.avgOccs::total       0.999942                       # Average percentage of cache occupancy ((Ratio/Tick))
system.cpu0.dcache.tags.occupanciesTaskId::1024          512                       # Occupied blocks per task id (Count)
system.cpu0.dcache.tags.ageTaskId_1024::0           95                       # Occupied blocks per task id, per block age (Count)
system.cpu0.dcache.tags.ageTaskId_1024::1          417                       # Occupied blocks per task id, per block age (Count)
system.cpu0.dcache.tags.ratioOccsTaskId::1024            1                       # Ratio of occupied blocks and all blocks, per task id (Ratio)
system.cpu0.dcache.tags.tagAccesses        2655788948                       # Number of tag accesses (Count)
system.cpu0.dcache.tags.dataAccesses       2655788948                       # Number of data accesses (Count)
system.cpu0.dcache.tags.power_state.pwrStateResidencyTicks::UNDEFINED 462808817000                       # Cumulative time (in ticks) in various power states (Tick)
system.cpu0.decode.idleCycles               113889160                       # Number of cycles decode is idle (Cycle)
system.cpu0.decode.blockedCycles            517375863                       # Number of cycles decode is blocked (Cycle)
system.cpu0.decode.runCycles                274716234                       # Number of cycles decode is running (Cycle)
system.cpu0.decode.unblockCycles             19101772                       # Number of cycles decode is unblocking (Cycle)
system.cpu0.decode.squashCycles                 84891                       # Number of cycles decode is squashing (Cycle)
system.cpu0.decode.branchResolved            85923126                       # Number of times decode resolved a branch (Count)
system.cpu0.decode.branchMispred                 4704                       # Number of times decode detected a branch misprediction (Count)
system.cpu0.decode.decodedInsts            1929336382                       # Number of instructions handled by decode (Count)
system.cpu0.decode.squashedInsts                18261                       # Number of squashed instructions handled by decode (Count)
system.cpu0.dtb_walker_cache.blockedCycles::no_mshrs            0                       # number of cycles access was blocked (Cycle)
system.cpu0.dtb_walker_cache.blockedCycles::no_targets            0                       # number of cycles access was blocked (Cycle)
system.cpu0.dtb_walker_cache.blockedCauses::no_mshrs            0                       # number of times access was blocked (Count)
system.cpu0.dtb_walker_cache.blockedCauses::no_targets            0                       # number of times access was blocked (Count)
system.cpu0.dtb_walker_cache.avgBlocked::no_mshrs          nan                       # average number of cycles each access was blocked ((Cycle/Count))
system.cpu0.dtb_walker_cache.avgBlocked::no_targets          nan                       # average number of cycles each access was blocked ((Cycle/Count))
system.cpu0.dtb_walker_cache.replacements            0                       # number of replacements (Count)
system.cpu0.dtb_walker_cache.power_state.pwrStateResidencyTicks::UNDEFINED 462808817000                       # Cumulative time (in ticks) in various power states (Tick)
system.cpu0.dtb_walker_cache.tags.tagsInUse            0                       # Average ticks per tags in use ((Tick/Count))
system.cpu0.dtb_walker_cache.tags.totalRefs            0                       # Total number of references to valid blocks. (Count)
system.cpu0.dtb_walker_cache.tags.sampledRefs            0                       # Sample count of references to valid blocks. (Count)
system.cpu0.dtb_walker_cache.tags.avgRefs          nan                       # Average number of references to valid blocks. ((Count/Count))
system.cpu0.dtb_walker_cache.tags.warmupTick            0                       # The tick when the warmup percentage was hit. (Tick)
system.cpu0.dtb_walker_cache.tags.tagAccesses            0                       # Number of tag accesses (Count)
system.cpu0.dtb_walker_cache.tags.dataAccesses            0                       # Number of data accesses (Count)
system.cpu0.dtb_walker_cache.tags.power_state.pwrStateResidencyTicks::UNDEFINED 462808817000                       # Cumulative time (in ticks) in various power states (Tick)
system.cpu0.fetch.icacheStallCycles         138545689                       # Number of cycles fetch is stalled on an Icache miss (Cycle)
system.cpu0.fetch.insts                    1004197503                       # Number of instructions fetch has processed (Count)
system.cpu0.fetch.branches                  192079266                       # Number of branches that fetch encountered (Count)
system.cpu0.fetch.predictedBranches         106668927                       # Number of branches that fetch has predicted taken (Count)
system.cpu0.fetch.cycles                    786524934                       # Number of cycles fetch has run and was not squashing or blocked (Cycle)
system.cpu0.fetch.squashCycles                 179030                       # Number of cycles fetch has spent squashing (Cycle)
system.cpu0.fetch.miscStallCycles                 993                       # Number of cycles fetch has spent waiting on interrupts, or bad addresses, or out of MSHRs (Cycle)
system.cpu0.fetch.pendingTrapStallCycles         6732                       # Number of stall cycles due to pending traps (Cycle)
system.cpu0.fetch.icacheWaitRetryStallCycles           57                       # Number of stall cycles due to full MSHR (Cycle)
system.cpu0.fetch.cacheLines                138284180                       # Number of cache lines fetched (Count)
system.cpu0.fetch.icacheSquashes                17634                       # Number of outstanding Icache misses that were squashed (Count)
system.cpu0.fetch.nisnDist::samples         925167920                       # Number of instructions fetched each cycle (Total) (Count)
system.cpu0.fetch.nisnDist::mean             2.086652                       # Number of instructions fetched each cycle (Total) (Count)
system.cpu0.fetch.nisnDist::stdev            3.244916                       # Number of instructions fetched each cycle (Total) (Count)
system.cpu0.fetch.nisnDist::underflows              0      0.00%      0.00% # Number of instructions fetched each cycle (Total) (Count)
system.cpu0.fetch.nisnDist::0               610582394     66.00%     66.00% # Number of instructions fetched each cycle (Total) (Count)
system.cpu0.fetch.nisnDist::1                21118257      2.28%     68.28% # Number of instructions fetched each cycle (Total) (Count)
system.cpu0.fetch.nisnDist::2                21534448      2.33%     70.61% # Number of instructions fetched each cycle (Total) (Count)
system.cpu0.fetch.nisnDist::3                29991049      3.24%     73.85% # Number of instructions fetched each cycle (Total) (Count)
system.cpu0.fetch.nisnDist::4                13805851      1.49%     75.34% # Number of instructions fetched each cycle (Total) (Count)
system.cpu0.fetch.nisnDist::5                18356558      1.98%     77.33% # Number of instructions fetched each cycle (Total) (Count)
system.cpu0.fetch.nisnDist::6                10215701      1.10%     78.43% # Number of instructions fetched each cycle (Total) (Count)
system.cpu0.fetch.nisnDist::7                28466620      3.08%     81.51% # Number of instructions fetched each cycle (Total) (Count)
system.cpu0.fetch.nisnDist::8               171097042     18.49%    100.00% # Number of instructions fetched each cycle (Total) (Count)
system.cpu0.fetch.nisnDist::overflows               0      0.00%    100.00% # Number of instructions fetched each cycle (Total) (Count)
system.cpu0.fetch.nisnDist::min_value               0                       # Number of instructions fetched each cycle (Total) (Count)
system.cpu0.fetch.nisnDist::max_value               8                       # Number of instructions fetched each cycle (Total) (Count)
system.cpu0.fetch.nisnDist::total           925167920                       # Number of instructions fetched each cycle (Total) (Count)
system.cpu0.fetch.branchRate                 0.207515                       # Number of branch fetches per cycle (Ratio)
system.cpu0.fetch.rate                       1.084895                       # Number of inst fetches per cycle ((Count/Cycle))
system.cpu0.icache.demandHits::cpu0.inst    138275736                       # number of demand (read+write) hits (Count)
system.cpu0.icache.demandHits::total        138275736                       # number of demand (read+write) hits (Count)
system.cpu0.icache.overallHits::cpu0.inst    138275736                       # number of overall hits (Count)
system.cpu0.icache.overallHits::total       138275736                       # number of overall hits (Count)
system.cpu0.icache.demandMisses::cpu0.inst         8443                       # number of demand (read+write) misses (Count)
system.cpu0.icache.demandMisses::total           8443                       # number of demand (read+write) misses (Count)
system.cpu0.icache.overallMisses::cpu0.inst         8443                       # number of overall misses (Count)
system.cpu0.icache.overallMisses::total          8443                       # number of overall misses (Count)
system.cpu0.icache.demandMissLatency::cpu0.inst    553793000                       # number of demand (read+write) miss ticks (Tick)
system.cpu0.icache.demandMissLatency::total    553793000                       # number of demand (read+write) miss ticks (Tick)
system.cpu0.icache.overallMissLatency::cpu0.inst    553793000                       # number of overall miss ticks (Tick)
system.cpu0.icache.overallMissLatency::total    553793000                       # number of overall miss ticks (Tick)
system.cpu0.icache.demandAccesses::cpu0.inst    138284179                       # number of demand (read+write) accesses (Count)
system.cpu0.icache.demandAccesses::total    138284179                       # number of demand (read+write) accesses (Count)
system.cpu0.icache.overallAccesses::cpu0.inst    138284179                       # number of overall (read+write) accesses (Count)
system.cpu0.icache.overallAccesses::total    138284179                       # number of overall (read+write) accesses (Count)
system.cpu0.icache.demandMissRate::cpu0.inst     0.000061                       # miss rate for demand accesses (Ratio)
system.cpu0.icache.demandMissRate::total     0.000061                       # miss rate for demand accesses (Ratio)
system.cpu0.icache.overallMissRate::cpu0.inst     0.000061                       # miss rate for overall accesses (Ratio)
system.cpu0.icache.overallMissRate::total     0.000061                       # miss rate for overall accesses (Ratio)
system.cpu0.icache.demandAvgMissLatency::cpu0.inst 65591.969679                       # average overall miss latency in ticks ((Tick/Count))
system.cpu0.icache.demandAvgMissLatency::total 65591.969679                       # average overall miss latency in ticks ((Tick/Count))
system.cpu0.icache.overallAvgMissLatency::cpu0.inst 65591.969679                       # average overall miss latency ((Tick/Count))
system.cpu0.icache.overallAvgMissLatency::total 65591.969679                       # average overall miss latency ((Tick/Count))
system.cpu0.icache.blockedCycles::no_mshrs          812                       # number of cycles access was blocked (Cycle)
system.cpu0.icache.blockedCycles::no_targets            0                       # number of cycles access was blocked (Cycle)
system.cpu0.icache.blockedCauses::no_mshrs           17                       # number of times access was blocked (Count)
system.cpu0.icache.blockedCauses::no_targets            0                       # number of times access was blocked (Count)
system.cpu0.icache.avgBlocked::no_mshrs     47.764706                       # average number of cycles each access was blocked ((Cycle/Count))
system.cpu0.icache.avgBlocked::no_targets          nan                       # average number of cycles each access was blocked ((Cycle/Count))
system.cpu0.icache.writebacks::writebacks         6205                       # number of writebacks (Count)
system.cpu0.icache.writebacks::total             6205                       # number of writebacks (Count)
system.cpu0.icache.demandMshrHits::cpu0.inst         1725                       # number of demand (read+write) MSHR hits (Count)
system.cpu0.icache.demandMshrHits::total         1725                       # number of demand (read+write) MSHR hits (Count)
system.cpu0.icache.overallMshrHits::cpu0.inst         1725                       # number of overall MSHR hits (Count)
system.cpu0.icache.overallMshrHits::total         1725                       # number of overall MSHR hits (Count)
system.cpu0.icache.demandMshrMisses::cpu0.inst         6718                       # number of demand (read+write) MSHR misses (Count)
system.cpu0.icache.demandMshrMisses::total         6718                       # number of demand (read+write) MSHR misses (Count)
system.cpu0.icache.overallMshrMisses::cpu0.inst         6718                       # number of overall MSHR misses (Count)
system.cpu0.icache.overallMshrMisses::total         6718                       # number of overall MSHR misses (Count)
system.cpu0.icache.demandMshrMissLatency::cpu0.inst    456738500                       # number of demand (read+write) MSHR miss ticks (Tick)
system.cpu0.icache.demandMshrMissLatency::total    456738500                       # number of demand (read+write) MSHR miss ticks (Tick)
system.cpu0.icache.overallMshrMissLatency::cpu0.inst    456738500                       # number of overall MSHR miss ticks (Tick)
system.cpu0.icache.overallMshrMissLatency::total    456738500                       # number of overall MSHR miss ticks (Tick)
system.cpu0.icache.demandMshrMissRate::cpu0.inst     0.000049                       # mshr miss ratio for demand accesses (Ratio)
system.cpu0.icache.demandMshrMissRate::total     0.000049                       # mshr miss ratio for demand accesses (Ratio)
system.cpu0.icache.overallMshrMissRate::cpu0.inst     0.000049                       # mshr miss ratio for overall accesses (Ratio)
system.cpu0.icache.overallMshrMissRate::total     0.000049                       # mshr miss ratio for overall accesses (Ratio)
system.cpu0.icache.demandAvgMshrMissLatency::cpu0.inst 67987.272998                       # average overall mshr miss latency ((Tick/Count))
system.cpu0.icache.demandAvgMshrMissLatency::total 67987.272998                       # average overall mshr miss latency ((Tick/Count))
system.cpu0.icache.overallAvgMshrMissLatency::cpu0.inst 67987.272998                       # average overall mshr miss latency ((Tick/Count))
system.cpu0.icache.overallAvgMshrMissLatency::total 67987.272998                       # average overall mshr miss latency ((Tick/Count))
system.cpu0.icache.replacements                  6205                       # number of replacements (Count)
system.cpu0.icache.ReadReq.hits::cpu0.inst    138275736                       # number of ReadReq hits (Count)
system.cpu0.icache.ReadReq.hits::total      138275736                       # number of ReadReq hits (Count)
system.cpu0.icache.ReadReq.misses::cpu0.inst         8443                       # number of ReadReq misses (Count)
system.cpu0.icache.ReadReq.misses::total         8443                       # number of ReadReq misses (Count)
system.cpu0.icache.ReadReq.missLatency::cpu0.inst    553793000                       # number of ReadReq miss ticks (Tick)
system.cpu0.icache.ReadReq.missLatency::total    553793000                       # number of ReadReq miss ticks (Tick)
system.cpu0.icache.ReadReq.accesses::cpu0.inst    138284179                       # number of ReadReq accesses(hits+misses) (Count)
system.cpu0.icache.ReadReq.accesses::total    138284179                       # number of ReadReq accesses(hits+misses) (Count)
system.cpu0.icache.ReadReq.missRate::cpu0.inst     0.000061                       # miss rate for ReadReq accesses (Ratio)
system.cpu0.icache.ReadReq.missRate::total     0.000061                       # miss rate for ReadReq accesses (Ratio)
system.cpu0.icache.ReadReq.avgMissLatency::cpu0.inst 65591.969679                       # average ReadReq miss latency ((Tick/Count))
system.cpu0.icache.ReadReq.avgMissLatency::total 65591.969679                       # average ReadReq miss latency ((Tick/Count))
system.cpu0.icache.ReadReq.mshrHits::cpu0.inst         1725                       # number of ReadReq MSHR hits (Count)
system.cpu0.icache.ReadReq.mshrHits::total         1725                       # number of ReadReq MSHR hits (Count)
system.cpu0.icache.ReadReq.mshrMisses::cpu0.inst         6718                       # number of ReadReq MSHR misses (Count)
system.cpu0.icache.ReadReq.mshrMisses::total         6718                       # number of ReadReq MSHR misses (Count)
system.cpu0.icache.ReadReq.mshrMissLatency::cpu0.inst    456738500                       # number of ReadReq MSHR miss ticks (Tick)
system.cpu0.icache.ReadReq.mshrMissLatency::total    456738500                       # number of ReadReq MSHR miss ticks (Tick)
system.cpu0.icache.ReadReq.mshrMissRate::cpu0.inst     0.000049                       # mshr miss rate for ReadReq accesses (Ratio)
system.cpu0.icache.ReadReq.mshrMissRate::total     0.000049                       # mshr miss rate for ReadReq accesses (Ratio)
system.cpu0.icache.ReadReq.avgMshrMissLatency::cpu0.inst 67987.272998                       # average ReadReq mshr miss latency ((Tick/Count))
system.cpu0.icache.ReadReq.avgMshrMissLatency::total 67987.272998                       # average ReadReq mshr miss latency ((Tick/Count))
system.cpu0.icache.power_state.pwrStateResidencyTicks::UNDEFINED 462808817000                       # Cumulative time (in ticks) in various power states (Tick)
system.cpu0.icache.tags.tagsInUse          511.976769                       # Average ticks per tags in use ((Tick/Count))
system.cpu0.icache.tags.totalRefs           138282454                       # Total number of references to valid blocks. (Count)
system.cpu0.icache.tags.sampledRefs              6718                       # Sample count of references to valid blocks. (Count)
system.cpu0.icache.tags.avgRefs          20583.872283                       # Average number of references to valid blocks. ((Count/Count))
system.cpu0.icache.tags.warmupTick              77000                       # The tick when the warmup percentage was hit. (Tick)
system.cpu0.icache.tags.occupancies::cpu0.inst   511.976769                       # Average occupied blocks per tick, per requestor ((Count/Tick))
system.cpu0.icache.tags.avgOccs::cpu0.inst     0.999955                       # Average percentage of cache occupancy ((Ratio/Tick))
system.cpu0.icache.tags.avgOccs::total       0.999955                       # Average percentage of cache occupancy ((Ratio/Tick))
system.cpu0.icache.tags.occupanciesTaskId::1024          512                       # Occupied blocks per task id (Count)
system.cpu0.icache.tags.ageTaskId_1024::4          512                       # Occupied blocks per task id, per block age (Count)
system.cpu0.icache.tags.ratioOccsTaskId::1024            1                       # Ratio of occupied blocks and all blocks, per task id (Ratio)
system.cpu0.icache.tags.tagAccesses        1106280150                       # Number of tag accesses (Count)
system.cpu0.icache.tags.dataAccesses       1106280150                       # Number of data accesses (Count)
system.cpu0.icache.tags.power_state.pwrStateResidencyTicks::UNDEFINED 462808817000                       # Cumulative time (in ticks) in various power states (Tick)
system.cpu0.iew.idleCycles                          0                       # Number of cycles IEW is idle (Cycle)
system.cpu0.iew.squashCycles                    84891                       # Number of cycles IEW is squashing (Cycle)
system.cpu0.iew.blockCycles                  81916834                       # Number of cycles IEW is blocking (Cycle)
system.cpu0.iew.unblockCycles                 2458578                       # Number of cycles IEW is unblocking (Cycle)
system.cpu0.iew.dispatchedInsts            1928112887                       # Number of instructions dispatched to IQ (Count)
system.cpu0.iew.dispSquashedInsts                1729                       # Number of squashed instructions skipped by dispatch (Count)
system.cpu0.iew.dispLoadInsts               260603781                       # Number of dispatched load instructions (Count)
system.cpu0.iew.dispStoreInsts              123750168                       # Number of dispatched store instructions (Count)
system.cpu0.iew.dispNonSpecInsts                  699                       # Number of dispatched non-speculative instructions (Count)
system.cpu0.iew.iqFullEvents                    21765                       # Number of times the IQ has become full, causing a stall (Count)
system.cpu0.iew.lsqFullEvents                 1647547                       # Number of times the LSQ has become full, causing a stall (Count)
system.cpu0.iew.memOrderViolationEvents          7938                       # Number of memory order violations (Count)
system.cpu0.iew.predictedTakenIncorrect         26610                       # Number of branches that were predicted taken incorrectly (Count)
system.cpu0.iew.predictedNotTakenIncorrect        41383                       # Number of branches that were predicted not taken incorrectly (Count)
system.cpu0.iew.branchMispredicts               67993                       # Number of branch mispredicts detected at execute (Count)
system.cpu0.iew.instsToCommit              1926340580                       # Cumulative count of insts sent to commit (Count)
system.cpu0.iew.writebackCount             1926280351                       # Cumulative count of insts written-back (Count)
system.cpu0.iew.producerInst               1365547365                       # Number of instructions producing a value (Count)
system.cpu0.iew.consumerInst               2154779942                       # Number of instructions consuming a value (Count)
system.cpu0.iew.wbRate                       2.081076                       # Insts written-back per cycle ((Count/Cycle))
system.cpu0.iew.wbFanout                     0.633729                       # Average fanout of values written-back ((Count/Count))
system.cpu0.interrupts.clk_domain.clock          8000                       # Clock period in ticks (Tick)
system.cpu0.itb_walker_cache.blockedCycles::no_mshrs            0                       # number of cycles access was blocked (Cycle)
system.cpu0.itb_walker_cache.blockedCycles::no_targets            0                       # number of cycles access was blocked (Cycle)
system.cpu0.itb_walker_cache.blockedCauses::no_mshrs            0                       # number of times access was blocked (Count)
system.cpu0.itb_walker_cache.blockedCauses::no_targets            0                       # number of times access was blocked (Count)
system.cpu0.itb_walker_cache.avgBlocked::no_mshrs          nan                       # average number of cycles each access was blocked ((Cycle/Count))
system.cpu0.itb_walker_cache.avgBlocked::no_targets          nan                       # average number of cycles each access was blocked ((Cycle/Count))
system.cpu0.itb_walker_cache.replacements            0                       # number of replacements (Count)
system.cpu0.itb_walker_cache.power_state.pwrStateResidencyTicks::UNDEFINED 462808817000                       # Cumulative time (in ticks) in various power states (Tick)
system.cpu0.itb_walker_cache.tags.tagsInUse            0                       # Average ticks per tags in use ((Tick/Count))
system.cpu0.itb_walker_cache.tags.totalRefs            0                       # Total number of references to valid blocks. (Count)
system.cpu0.itb_walker_cache.tags.sampledRefs            0                       # Sample count of references to valid blocks. (Count)
system.cpu0.itb_walker_cache.tags.avgRefs          nan                       # Average number of references to valid blocks. ((Count/Count))
system.cpu0.itb_walker_cache.tags.warmupTick            0                       # The tick when the warmup percentage was hit. (Tick)
system.cpu0.itb_walker_cache.tags.tagAccesses            0                       # Number of tag accesses (Count)
system.cpu0.itb_walker_cache.tags.dataAccesses            0                       # Number of data accesses (Count)
system.cpu0.itb_walker_cache.tags.power_state.pwrStateResidencyTicks::UNDEFINED 462808817000                       # Cumulative time (in ticks) in various power states (Tick)
system.cpu0.lsq0.forwLoads                   52717647                       # Number of loads that had data forwarded from stores (Count)
system.cpu0.lsq0.squashedLoads                 768862                       # Number of loads squashed (Count)
system.cpu0.lsq0.ignoredResponses                 268                       # Number of memory responses ignored because the instruction is squashed (Count)
system.cpu0.lsq0.memOrderViolation               7938                       # Number of memory ordering violations (Count)
system.cpu0.lsq0.squashedStores                329568                       # Number of stores squashed (Count)
system.cpu0.lsq0.rescheduledLoads                5336                       # Number of loads that were rescheduled (Count)
system.cpu0.lsq0.blockedByCache                764898                       # Number of times an access to memory failed due to the cache being blocked (Count)
system.cpu0.lsq0.loadToUse::samples         259834902                       # Distribution of cycle latency between the first time a load is issued and its completion (Unspecified)
system.cpu0.lsq0.loadToUse::mean             9.457182                       # Distribution of cycle latency between the first time a load is issued and its completion (Unspecified)
[...]
system.mem_ctrls.dram.perBankRdBursts::5       543770                       # Per bank write bursts (Count)
system.mem_ctrls.dram.perBankRdBursts::6       451181                       # Per bank write bursts (Count)
system.mem_ctrls.dram.perBankRdBursts::7       448203                       # Per bank write bursts (Count)
system.mem_ctrls.dram.perBankRdBursts::8       448037                       # Per bank write bursts (Count)
system.mem_ctrls.dram.perBankRdBursts::9       448540                       # Per bank write bursts (Count)
system.mem_ctrls.dram.perBankRdBursts::10       446268                       # Per bank write bursts (Count)
system.mem_ctrls.dram.perBankRdBursts::11       370144                       # Per bank write bursts (Count)
system.mem_ctrls.dram.perBankRdBursts::12       461022                       # Per bank write bursts (Count)
system.mem_ctrls.dram.perBankRdBursts::13       350221                       # Per bank write bursts (Count)
system.mem_ctrls.dram.perBankRdBursts::14       271031                       # Per bank write bursts (Count)
system.mem_ctrls.dram.perBankRdBursts::15       310136                       # Per bank write bursts (Count)
system.mem_ctrls.dram.perBankWrBursts::0       121303                       # Per bank write bursts (Count)
system.mem_ctrls.dram.perBankWrBursts::1       122548                       # Per bank write bursts (Count)
system.mem_ctrls.dram.perBankWrBursts::2       121535                       # Per bank write bursts (Count)
system.mem_ctrls.dram.perBankWrBursts::3       167791                       # Per bank write bursts (Count)
system.mem_ctrls.dram.perBankWrBursts::4       218231                       # Per bank write bursts (Count)
system.mem_ctrls.dram.perBankWrBursts::5       264614                       # Per bank write bursts (Count)
system.mem_ctrls.dram.perBankWrBursts::6       215812                       # Per bank write bursts (Count)
system.mem_ctrls.dram.perBankWrBursts::7       217743                       # Per bank write bursts (Count)
system.mem_ctrls.dram.perBankWrBursts::8       216830                       # Per bank write bursts (Count)
system.mem_ctrls.dram.perBankWrBursts::9       217900                       # Per bank write bursts (Count)
system.mem_ctrls.dram.perBankWrBursts::10       217063                       # Per bank write bursts (Count)
system.mem_ctrls.dram.perBankWrBursts::11       178176                       # Per bank write bursts (Count)
system.mem_ctrls.dram.perBankWrBursts::12       218089                       # Per bank write bursts (Count)
system.mem_ctrls.dram.perBankWrBursts::13       167985                       # Per bank write bursts (Count)
system.mem_ctrls.dram.perBankWrBursts::14       125944                       # Per bank write bursts (Count)
system.mem_ctrls.dram.perBankWrBursts::15       137825                       # Per bank write bursts (Count)
system.mem_ctrls.dram.totQLat            177281760250                       # Total ticks spent queuing (Tick)
system.mem_ctrls.dram.totBusLat           30645040000                       # Total ticks spent in databus transfers (Tick)
system.mem_ctrls.dram.totMemAccLat       292200660250                       # Total ticks spent from burst creation until serviced by the DRAM (Tick)
system.mem_ctrls.dram.avgQLat                28925.03                       # Average queueing delay per DRAM burst ((Tick/Count))
system.mem_ctrls.dram.avgBusLat               5000.00                       # Average bus latency per DRAM burst ((Tick/Count))
system.mem_ctrls.dram.avgMemAccLat           47675.03                       # Average memory access latency per DRAM burst ((Tick/Count))
system.mem_ctrls.dram.readRowHits             2816414                       # Number of row buffer hits during reads (Count)
system.mem_ctrls.dram.writeRowHits            1331328                       # Number of row buffer hits during writes (Count)
system.mem_ctrls.dram.readRowHitRate            45.95                       # Row buffer hit rate for reads (Ratio)
system.mem_ctrls.dram.writeRowHitRate           45.45                       # Row buffer hit rate for writes (Ratio)
system.mem_ctrls.dram.bytesPerActivate::samples      4910654                       # Bytes accessed per row activation (Byte)
system.mem_ctrls.dram.bytesPerActivate::mean   118.057054                       # Bytes accessed per row activation (Byte)
system.mem_ctrls.dram.bytesPerActivate::gmean    85.629081                       # Bytes accessed per row activation (Byte)
system.mem_ctrls.dram.bytesPerActivate::stdev   172.594414                       # Bytes accessed per row activation (Byte)
system.mem_ctrls.dram.bytesPerActivate::0-127      3577440     72.85%     72.85% # Bytes accessed per row activation (Byte)
system.mem_ctrls.dram.bytesPerActivate::128-255      1018046     20.73%     93.58% # Bytes accessed per row activation (Byte)
system.mem_ctrls.dram.bytesPerActivate::256-383        55494      1.13%     94.71% # Bytes accessed per row activation (Byte)
system.mem_ctrls.dram.bytesPerActivate::384-511        72310      1.47%     96.18% # Bytes accessed per row activation (Byte)
system.mem_ctrls.dram.bytesPerActivate::512-639        14673      0.30%     96.48% # Bytes accessed per row activation (Byte)
system.mem_ctrls.dram.bytesPerActivate::640-767        13883      0.28%     96.77% # Bytes accessed per row activation (Byte)
system.mem_ctrls.dram.bytesPerActivate::768-895        17549      0.36%     97.12% # Bytes accessed per row activation (Byte)
system.mem_ctrls.dram.bytesPerActivate::896-1023        14562      0.30%     97.42% # Bytes accessed per row activation (Byte)
system.mem_ctrls.dram.bytesPerActivate::1024-1151       126697      2.58%    100.00% # Bytes accessed per row activation (Byte)
system.mem_ctrls.dram.bytesPerActivate::total      4910654                       # Bytes accessed per row activation (Byte)
system.mem_ctrls.dram.bytesRead             392256512                       # Total bytes read (Byte)
system.mem_ctrls.dram.bytesWritten          187480896                       # Total bytes written (Byte)
system.mem_ctrls.dram.avgRdBW              847.556264                       # Average DRAM read bandwidth in MiBytes/s ((Byte/Second))
system.mem_ctrls.dram.avgWrBW              405.093613                       # Average DRAM write bandwidth in MiBytes/s ((Byte/Second))
system.mem_ctrls.dram.peakBW                 12800.00                       # Theoretical peak bandwidth in MiByte/s ((Byte/Second))
system.mem_ctrls.dram.busUtil                    9.79                       # Data bus utilization in percentage (Ratio)
system.mem_ctrls.dram.busUtilRead                6.62                       # Data bus utilization in percentage for reads (Ratio)
system.mem_ctrls.dram.busUtilWrite               3.16                       # Data bus utilization in percentage for writes (Ratio)
system.mem_ctrls.dram.pageHitRate               45.79                       # Row buffer hit rate, read and write combined (Ratio)
system.mem_ctrls.dram.power_state.pwrStateResidencyTicks::UNDEFINED 462808817000                       # Cumulative time (in ticks) in various power states (Tick)
system.mem_ctrls.dram.rank0.actEnergy     17802326220                       # Energy for activate commands per rank (pJ) (Joule)
system.mem_ctrls.dram.rank0.preEnergy      9462160785                       # Energy for precharge commands per rank (pJ) (Joule)
system.mem_ctrls.dram.rank0.readEnergy    21588561120                       # Energy for read commands per rank (pJ) (Joule)
system.mem_ctrls.dram.rank0.writeEnergy    7566791940                       # Energy for write commands per rank (pJ) (Joule)
system.mem_ctrls.dram.rank0.refreshEnergy 36533586960.000008                       # Energy for refresh commands per rank (pJ) (Joule)
system.mem_ctrls.dram.rank0.actBackEnergy 182086371180                       # Energy for active background per rank (pJ) (Joule)
system.mem_ctrls.dram.rank0.preBackEnergy  24382694400                       # Energy for precharge background per rank (pJ) (Joule)
system.mem_ctrls.dram.rank0.actPowerDownEnergy            0                       # Energy for active power-down per rank (pJ) (Joule)
system.mem_ctrls.dram.rank0.prePowerDownEnergy            0                       # Energy for precharge power-down per rank (pJ) (Joule)
system.mem_ctrls.dram.rank0.selfRefreshEnergy            0                       # Energy for self refresh per rank (pJ) (Joule)
system.mem_ctrls.dram.rank0.totalEnergy  299422492605                       # Total energy per rank (pJ) (Joule)
system.mem_ctrls.dram.rank0.averagePower   646.967995                       # Core power per rank (mW) (Watt)
system.mem_ctrls.dram.rank0.totalIdleTime            0                       # Total Idle time Per DRAM Rank (Tick)
system.mem_ctrls.dram.rank0.pwrStateTime::IDLE  61576107750                       # Time in different power states (Tick)
system.mem_ctrls.dram.rank0.pwrStateTime::REF  15454140000                       # Time in different power states (Tick)
system.mem_ctrls.dram.rank0.pwrStateTime::SREF            0                       # Time in different power states (Tick)
system.mem_ctrls.dram.rank0.pwrStateTime::PRE_PDN            0                       # Time in different power states (Tick)
system.mem_ctrls.dram.rank0.pwrStateTime::ACT 385778569250                       # Time in different power states (Tick)
system.mem_ctrls.dram.rank0.pwrStateTime::ACT_PDN            0                       # Time in different power states (Tick)
system.mem_ctrls.dram.rank1.actEnergy     17259743340                       # Energy for activate commands per rank (pJ) (Joule)
system.mem_ctrls.dram.rank1.preEnergy      9173771145                       # Energy for precharge commands per rank (pJ) (Joule)
system.mem_ctrls.dram.rank1.readEnergy    22172548860                       # Energy for read commands per rank (pJ) (Joule)
system.mem_ctrls.dram.rank1.writeEnergy    7724618640                       # Energy for write commands per rank (pJ) (Joule)
system.mem_ctrls.dram.rank1.refreshEnergy 36533586960.000008                       # Energy for refresh commands per rank (pJ) (Joule)
system.mem_ctrls.dram.rank1.actBackEnergy 185211788910                       # Energy for active background per rank (pJ) (Joule)
system.mem_ctrls.dram.rank1.preBackEnergy  21750763680                       # Energy for precharge background per rank (pJ) (Joule)
system.mem_ctrls.dram.rank1.actPowerDownEnergy            0                       # Energy for active power-down per rank (pJ) (Joule)
system.mem_ctrls.dram.rank1.prePowerDownEnergy            0                       # Energy for precharge power-down per rank (pJ) (Joule)
system.mem_ctrls.dram.rank1.selfRefreshEnergy            0                       # Energy for self refresh per rank (pJ) (Joule)
system.mem_ctrls.dram.rank1.totalEnergy  299826821535                       # Total energy per rank (pJ) (Joule)
system.mem_ctrls.dram.rank1.averagePower   647.841637                       # Core power per rank (mW) (Watt)
system.mem_ctrls.dram.rank1.totalIdleTime            0                       # Total Idle time Per DRAM Rank (Tick)
system.mem_ctrls.dram.rank1.pwrStateTime::IDLE  54724768750                       # Time in different power states (Tick)
system.mem_ctrls.dram.rank1.pwrStateTime::REF  15454140000                       # Time in different power states (Tick)
system.mem_ctrls.dram.rank1.pwrStateTime::SREF            0                       # Time in different power states (Tick)
system.mem_ctrls.dram.rank1.pwrStateTime::PRE_PDN            0                       # Time in different power states (Tick)
system.mem_ctrls.dram.rank1.pwrStateTime::ACT 392629908250                       # Time in different power states (Tick)
system.mem_ctrls.dram.rank1.pwrStateTime::ACT_PDN            0                       # Time in different power states (Tick)
system.mem_ctrls.power_state.pwrStateResidencyTicks::UNDEFINED 462808817000                       # Cumulative time (in ticks) in various power states (Tick)
system.membus.transDist::ReadResp             3219605                       # Transaction distribution (Count)
system.membus.transDist::WritebackDirty       2923245                       # Transaction distribution (Count)
system.membus.transDist::WritebackClean          6205                       # Transaction distribution (Count)
system.membus.transDist::CleanEvict           3198767                       # Transaction distribution (Count)
system.membus.transDist::UpgradeReq                 2                       # Transaction distribution (Count)
system.membus.transDist::ReadExReq            2909638                       # Transaction distribution (Count)
system.membus.transDist::ReadExResp           2909637                       # Transaction distribution (Count)
system.membus.transDist::ReadCleanReq            6718                       # Transaction distribution (Count)
system.membus.transDist::ReadSharedReq        3212887                       # Transaction distribution (Count)
system.membus.pktCount_system.cpu0.icache.mem_side_port::system.mem_ctrls.port        19637                       # Packet count per connected requestor and responder (Count)
system.membus.pktCount_system.cpu0.icache.mem_side_port::total        19637                       # Packet count per connected requestor and responder (Count)
system.membus.pktCount_system.cpu0.dcache.mem_side_port::system.mem_ctrls.port     18367063                       # Packet count per connected requestor and responder (Count)
system.membus.pktCount_system.cpu0.dcache.mem_side_port::total     18367063                       # Packet count per connected requestor and responder (Count)
system.membus.pktCount::total                18386700                       # Packet count per connected requestor and responder (Count)
system.membus.pktSize_system.cpu0.icache.mem_side_port::system.mem_ctrls.port       826816                       # Cumulative packet size per connected requestor and responder (Byte)
system.membus.pktSize_system.cpu0.icache.mem_side_port::total       826816                       # Cumulative packet size per connected requestor and responder (Byte)
system.membus.pktSize_system.cpu0.dcache.mem_side_port::system.mem_ctrls.port    578929216                       # Cumulative packet size per connected requestor and responder (Byte)
system.membus.pktSize_system.cpu0.dcache.mem_side_port::total    578929216                       # Cumulative packet size per connected requestor and responder (Byte)
system.membus.pktSize::total                579756032                       # Cumulative packet size per connected requestor and responder (Byte)
system.membus.snoops                                4                       # Total snoops (Count)
system.membus.snoopTraffic                        256                       # Total snoop traffic (Byte)
system.membus.snoopFanout::samples            6129245                       # Request fanout histogram (Count)
system.membus.snoopFanout::mean              0.000002                       # Request fanout histogram (Count)
system.membus.snoopFanout::stdev             0.001564                       # Request fanout histogram (Count)
system.membus.snoopFanout::underflows               0      0.00%      0.00% # Request fanout histogram (Count)
system.membus.snoopFanout::0                  6129230    100.00%    100.00% # Request fanout histogram (Count)
system.membus.snoopFanout::1                       15      0.00%    100.00% # Request fanout histogram (Count)
system.membus.snoopFanout::2                        0      0.00%    100.00% # Request fanout histogram (Count)
system.membus.snoopFanout::3                        0      0.00%    100.00% # Request fanout histogram (Count)
system.membus.snoopFanout::4                        0      0.00%    100.00% # Request fanout histogram (Count)
system.membus.snoopFanout::5                        0      0.00%    100.00% # Request fanout histogram (Count)
system.membus.snoopFanout::6                        0      0.00%    100.00% # Request fanout histogram (Count)
system.membus.snoopFanout::7                        0      0.00%    100.00% # Request fanout histogram (Count)
system.membus.snoopFanout::8                        0      0.00%    100.00% # Request fanout histogram (Count)
system.membus.snoopFanout::9                        0      0.00%    100.00% # Request fanout histogram (Count)
system.membus.snoopFanout::10                       0      0.00%    100.00% # Request fanout histogram (Count)
system.membus.snoopFanout::11                       0      0.00%    100.00% # Request fanout histogram (Count)
system.membus.snoopFanout::12                       0      0.00%    100.00% # Request fanout histogram (Count)
system.membus.snoopFanout::13                       0      0.00%    100.00% # Request fanout histogram (Count)
system.membus.snoopFanout::14                       0      0.00%    100.00% # Request fanout histogram (Count)
system.membus.snoopFanout::15                       0      0.00%    100.00% # Request fanout histogram (Count)
system.membus.snoopFanout::16                       0      0.00%    100.00% # Request fanout histogram (Count)
system.membus.snoopFanout::overflows                0      0.00%    100.00% # Request fanout histogram (Count)
system.membus.snoopFanout::min_value                0                       # Request fanout histogram (Count)
system.membus.snoopFanout::max_value                1                       # Request fanout histogram (Count)
system.membus.snoopFanout::total              6129245                       # Request fanout histogram (Count)
system.membus.power_state.pwrStateResidencyTicks::UNDEFINED 462808817000                       # Cumulative time (in ticks) in various power states (Tick)
system.membus.reqLayer8.occupancy         25116202000                       # Layer occupancy (ticks) (Tick)
system.membus.reqLayer8.utilization               0.1                       # Layer utilization (Ratio)
system.membus.respLayer1.occupancy           35871750                       # Layer occupancy (ticks) (Tick)
system.membus.respLayer1.utilization              0.0                       # Layer utilization (Ratio)
system.membus.respLayer2.occupancy        32945745499                       # Layer occupancy (ticks) (Tick)
system.membus.respLayer2.utilization              0.1                       # Layer utilization (Ratio)
system.membus.snoop_filter.totRequests       12257462                       # Total number of requests made to the snoop filter. (Count)
system.membus.snoop_filter.hitSingleRequests      6128218                       # Number of requests hitting in the snoop filter with a single holder of the requested data. (Count)
system.membus.snoop_filter.hitMultiRequests           15                       # Number of requests hitting in the snoop filter with multiple (>1) holders of the requested data. (Count)
system.membus.snoop_filter.totSnoops                0                       # Total number of snoops made to the snoop filter. (Count)
system.membus.snoop_filter.hitSingleSnoops            0                       # Number of snoops hitting in the snoop filter with a single holder of the requested data. (Count)
system.membus.snoop_filter.hitMultiSnoops            0                       # Number of snoops hitting in the snoop filter with multiple (>1) holders of the requested data. (Count)
system.voltage_domain.voltage                       1                       # Voltage in Volts (Volt)
system.workload.inst.arm                            0                       # number of arm instructions executed (Count)
system.workload.inst.quiesce                        0                       # number of quiesce instructions executed (Count)

---------- End Simulation Statistics   ----------
