
---------- Begin Simulation Statistics ----------
simSeconds                                   4.028952                       # Number of seconds simulated (Second)
simTicks                                 4028951978000                       # Number of ticks simulated (Tick)
finalTick                                4028951978000                       # Number of ticks from beginning of simulation (restored from checkpoints and never reset) (Tick)
simFreq                                  1000000000000                       # The number of ticks per simulated second ((Tick/Second))
hostSeconds                                  16084.97                       # Real time elapsed on the host (Second)
hostTickRate                                250479305                       # The number of ticks simulated per host second (ticks/s) ((Tick/Second))
hostMemory                                    8804868                       # Number of bytes of host memory used (Byte)
simInsts                                   1000000004                       # Number of instructions simulated (Count)
simOps                                     2215873589                       # Number of ops (including micro ops) simulated (Count)
hostInstRate                                    62170                       # Simulator instruction rate (inst/s) ((Count/Second))
hostOpRate                                     137761                       # Simulator op (including micro ops) rate (op/s) ((Count/Second))
system.clk_domain.clock                          1000                       # Clock period in ticks (Tick)
system.cpu0.numCycles                      8057903957                       # Number of cpu cycles simulated (Cycle)
system.cpu0.numWorkItemsStarted                     0                       # Number of work items this cpu started (Count)
system.cpu0.numWorkItemsCompleted                   0                       # Number of work items this cpu completed (Count)
system.cpu0.instsAdded                     2286498549                       # Number of instructions added to the IQ (excludes non-spec) (Count)
system.cpu0.nonSpecInstsAdded                     202                       # Number of non-speculative instructions added to the IQ (Count)
system.cpu0.instsIssued                    2278546477                       # Number of instructions issued (Count)
system.cpu0.squashedInstsIssued               1363382                       # Number of squashed instructions issued (Count)
system.cpu0.squashedInstsExamined            70625123                       # Number of squashed instructions iterated over during squash; mainly for profiling (Count)
system.cpu0.squashedOperandsExamined        133873043                       # Number of squashed operands that are examined and possibly removed from graph (Count)
system.cpu0.squashedNonSpecRemoved                130                       # Number of squashed non-spec instructions that were removed (Count)
system.cpu0.numIssuedDist::samples         8057830587                       # Number of insts issued each cycle (Count)
system.cpu0.numIssuedDist::mean              0.282774                       # Number of insts issued each cycle (Count)
system.cpu0.numIssuedDist::stdev             1.091630                       # Number of insts issued each cycle (Count)
system.cpu0.numIssuedDist::underflows               0      0.00%      0.00% # Number of insts issued each cycle (Count)
system.cpu0.numIssuedDist::0               7203277835     89.39%     89.39% # Number of insts issued each cycle (Count)
system.cpu0.numIssuedDist::1                454839162      5.64%     95.04% # Number of insts issued each cycle (Count)
system.cpu0.numIssuedDist::2                 77444051      0.96%     96.00% # Number of insts issued each cycle (Count)
system.cpu0.numIssuedDist::3                 61621997      0.76%     96.77% # Number of insts issued each cycle (Count)
system.cpu0.numIssuedDist::4                 70130075      0.87%     97.64% # Number of insts issued each cycle (Count)
system.cpu0.numIssuedDist::5                 50548548      0.63%     98.26% # Number of insts issued each cycle (Count)
system.cpu0.numIssuedDist::6                 59685995      0.74%     99.00% # Number of insts issued each cycle (Count)
system.cpu0.numIssuedDist::7                 49689180      0.62%     99.62% # Number of insts issued each cycle (Count)
system.cpu0.numIssuedDist::8                 30593744      0.38%    100.00% # Number of insts issued each cycle (Count)
system.cpu0.numIssuedDist::overflows                0      0.00%    100.00% # Number of insts issued each cycle (Count)
system.cpu0.numIssuedDist::min_value                0                       # Number of insts issued each cycle (Count)
system.cpu0.numIssuedDist::max_value                8                       # Number of insts issued each cycle (Count)
system.cpu0.numIssuedDist::total           8057830587                       # Number of insts issued each cycle (Count)
system.cpu0.statFuBusy::No_OpClass                  0      0.00%      0.00% # attempts to use FU when none available (Count)
system.cpu0.statFuBusy::IntAlu               20098927     79.05%     79.05% # attempts to use FU when none available (Count)
system.cpu0.statFuBusy::IntMult                     0      0.00%     79.05% # attempts to use FU when none available (Count)
system.cpu0.statFuBusy::IntDiv                      0      0.00%     79.05% # attempts to use FU when none available (Count)
system.cpu0.statFuBusy::FloatAdd                    0      0.00%     79.05% # attempts to use FU when none available (Count)
system.cpu0.statFuBusy::FloatCmp                    0      0.00%     79.05% # attempts to use FU when none available (Count)
system.cpu0.statFuBusy::FloatCvt                    0      0.00%     79.05% # attempts to use FU when none available (Count)
system.cpu0.statFuBusy::FloatMult                   0      0.00%     79.05% # attempts to use FU when none available (Count)
system.cpu0.statFuBusy::FloatMultAcc                0      0.00%     79.05% # attempts to use FU when none available (Count)
system.cpu0.statFuBusy::FloatDiv                    0      0.00%     79.05% # attempts to use FU when none available (Count)
system.cpu0.statFuBusy::FloatMisc                   0      0.00%     79.05% # attempts to use FU when none available (Count)
system.cpu0.statFuBusy::FloatSqrt                   0      0.00%     79.05% # attempts to use FU when none available (Count)
system.cpu0.statFuBusy::SimdAdd                     0      0.00%     79.05% # attempts to use FU when none available (Count)
system.cpu0.statFuBusy::SimdAddAcc                  0      0.00%     79.05% # attempts to use FU when none available (Count)
system.cpu0.statFuBusy::SimdAlu                     0      0.00%     79.05% # attempts to use FU when none available (Count)
system.cpu0.statFuBusy::SimdCmp                     0      0.00%     79.05% # attempts to use FU when none available (Count)
system.cpu0.statFuBusy::SimdCvt                     0      0.00%     79.05% # attempts to use FU when none available (Count)
system.cpu0.statFuBusy::SimdMisc                    0      0.00%     79.05% # attempts to use FU when none available (Count)
system.cpu0.statFuBusy::SimdMult                    0      0.00%     79.05% # attempts to use FU when none available (Count)
system.cpu0.statFuBusy::SimdMultAcc                 0      0.00%     79.05% # attempts to use FU when none available (Count)
system.cpu0.statFuBusy::SimdShift                   0      0.00%     79.05% # attempts to use FU when none available (Count)
system.cpu0.statFuBusy::SimdShiftAcc                0      0.00%     79.05% # attempts to use FU when none available (Count)
system.cpu0.statFuBusy::SimdDiv                     0      0.00%     79.05% # attempts to use FU when none available (Count)
system.cpu0.statFuBusy::SimdSqrt                    0      0.00%     79.05% # attempts to use FU when none available (Count)
system.cpu0.statFuBusy::SimdFloatAdd                0      0.00%     79.05% # attempts to use FU when none available (Count)
system.cpu0.statFuBusy::SimdFloatAlu                0      0.00%     79.05% # attempts to use FU when none available (Count)
system.cpu0.statFuBusy::SimdFloatCmp                0      0.00%     79.05% # attempts to use FU when none available (Count)
system.cpu0.statFuBusy::SimdFloatCvt                0      0.00%     79.05% # attempts to use FU when none available (Count)
system.cpu0.statFuBusy::SimdFloatDiv                0      0.00%     79.05% # attempts to use FU when none available (Count)
system.cpu0.statFuBusy::SimdFloatMisc               0      0.00%     79.05% # attempts to use FU when none available (Count)
system.cpu0.statFuBusy::SimdFloatMult               0      0.00%     79.05% # attempts to use FU when none available (Count)
system.cpu0.statFuBusy::SimdFloatMultAcc            0      0.00%     79.05% # attempts to use FU when none available (Count)
system.cpu0.statFuBusy::SimdFloatSqrt               0      0.00%     79.05% # attempts to use FU when none available (Count)
system.cpu0.statFuBusy::SimdReduceAdd               0      0.00%     79.05% # attempts to use FU when none available (Count)
system.cpu0.statFuBusy::SimdReduceAlu               0      0.00%     79.05% # attempts to use FU when none available (Count)
system.cpu0.statFuBusy::SimdReduceCmp               0      0.00%     79.05% # attempts to use FU when none available (Count)
system.cpu0.statFuBusy::SimdFloatReduceAdd            0      0.00%     79.05% # attempts to use FU when none available (Count)
system.cpu0.statFuBusy::SimdFloatReduceCmp            0      0.00%     79.05% # attempts to use FU when none available (Count)
system.cpu0.statFuBusy::SimdAes                     0      0.00%     79.05% # attempts to use FU when none available (Count)
system.cpu0.statFuBusy::SimdAesMix                  0      0.00%     79.05% # attempts to use FU when none available (Count)
system.cpu0.statFuBusy::SimdSha1Hash                0      0.00%     79.05% # attempts to use FU when none available (Count)
system.cpu0.statFuBusy::SimdSha1Hash2               0      0.00%     79.05% # attempts to use FU when none available (Count)
system.cpu0.statFuBusy::SimdSha256Hash              0      0.00%     79.05% # attempts to use FU when none available (Count)
system.cpu0.statFuBusy::SimdSha256Hash2             0      0.00%     79.05% # attempts to use FU when none available (Count)
system.cpu0.statFuBusy::SimdShaSigma2               0      0.00%     79.05% # attempts to use FU when none available (Count)
system.cpu0.statFuBusy::SimdShaSigma3               0      0.00%     79.05% # attempts to use FU when none available (Count)
system.cpu0.statFuBusy::SimdPredAlu                 0      0.00%     79.05% # attempts to use FU when none available (Count)
system.cpu0.statFuBusy::MemRead                375045      1.47%     80.52% # attempts to use FU when none available (Count)
system.cpu0.statFuBusy::MemWrite               827882      3.26%     83.78% # attempts to use FU when none available (Count)
system.cpu0.statFuBusy::FloatMemRead               37      0.00%     83.78% # attempts to use FU when none available (Count)
system.cpu0.statFuBusy::FloatMemWrite         4125007     16.22%    100.00% # attempts to use FU when none available (Count)
system.cpu0.statFuBusy::IprAccess                   0      0.00%    100.00% # attempts to use FU when none available (Count)
system.cpu0.statFuBusy::InstPrefetch                0      0.00%    100.00% # attempts to use FU when none available (Count)
system.cpu0.statIssuedInstType_0::No_OpClass        79409      0.00%      0.00% # Number of instructions issued per FU type, per thread (Count)
system.cpu0.statIssuedInstType_0::IntAlu   1366121792     59.96%     59.96% # Number of instructions issued per FU type, per thread (Count)
system.cpu0.statIssuedInstType_0::IntMult           74      0.00%     59.96% # Number of instructions issued per FU type, per thread (Count)
system.cpu0.statIssuedInstType_0::IntDiv         3777      0.00%     59.96% # Number of instructions issued per FU type, per thread (Count)
system.cpu0.statIssuedInstType_0::FloatAdd           85      0.00%     59.96% # Number of instructions issued per FU type, per thread (Count)
system.cpu0.statIssuedInstType_0::FloatCmp            0      0.00%     59.96% # Number of instructions issued per FU type, per thread (Count)
system.cpu0.statIssuedInstType_0::FloatCvt          134      0.00%     59.96% # Number of instructions issued per FU type, per thread (Count)
system.cpu0.statIssuedInstType_0::FloatMult            0      0.00%     59.96% # Number of instructions issued per FU type, per thread (Count)
system.cpu0.statIssuedInstType_0::FloatMultAcc            0      0.00%     59.96% # Number of instructions issued per FU type, per thread (Count)
system.cpu0.statIssuedInstType_0::FloatDiv            0      0.00%     59.96% # Number of instructions issued per FU type, per thread (Count)
system.cpu0.statIssuedInstType_0::FloatMisc            0      0.00%     59.96% # Number of instructions issued per FU type, per thread (Count)
system.cpu0.statIssuedInstType_0::FloatSqrt            0      0.00%     59.96% # Number of instructions issued per FU type, per thread (Count)
system.cpu0.statIssuedInstType_0::SimdAdd            0      0.00%     59.96% # Number of instructions issued per FU type, per thread (Count)
system.cpu0.statIssuedInstType_0::SimdAddAcc            0      0.00%     59.96% # Number of instructions issued per FU type, per thread (Count)
system.cpu0.statIssuedInstType_0::SimdAlu           40      0.00%     59.96% # Number of instructions issued per FU type, per thread (Count)
system.cpu0.statIssuedInstType_0::SimdCmp            0      0.00%     59.96% # Number of instructions issued per FU type, per thread (Count)
system.cpu0.statIssuedInstType_0::SimdCvt          151      0.00%     59.96% # Number of instructions issued per FU type, per thread (Count)
system.cpu0.statIssuedInstType_0::SimdMisc          237      0.00%     59.96% # Number of instructions issued per FU type, per thread (Count)
system.cpu0.statIssuedInstType_0::SimdMult            0      0.00%     59.96% # Number of instructions issued per FU type, per thread (Count)
system.cpu0.statIssuedInstType_0::SimdMultAcc            0      0.00%     59.96% # Number of instructions issued per FU type, per thread (Count)
system.cpu0.statIssuedInstType_0::SimdShift            0      0.00%     59.96% # Number of instructions issued per FU type, per thread (Count)
system.cpu0.statIssuedInstType_0::SimdShiftAcc            0      0.00%     59.96% # Number of instructions issued per FU type, per thread (Count)
system.cpu0.statIssuedInstType_0::SimdDiv            0      0.00%     59.96% # Number of instructions issued per FU type, per thread (Count)
system.cpu0.statIssuedInstType_0::SimdSqrt            0      0.00%     59.96% # Number of instructions issued per FU type, per thread (Count)
system.cpu0.statIssuedInstType_0::SimdFloatAdd            0      0.00%     59.96% # Number of instructions issued per FU type, per thread (Count)
system.cpu0.statIssuedInstType_0::SimdFloatAlu            0      0.00%     59.96% # Number of instructions issued per FU type, per thread (Count)
system.cpu0.statIssuedInstType_0::SimdFloatCmp            0      0.00%     59.96% # Number of instructions issued per FU type, per thread (Count)
system.cpu0.statIssuedInstType_0::SimdFloatCvt            0      0.00%     59.96% # Number of instructions issued per FU type, per thread (Count)
system.cpu0.statIssuedInstType_0::SimdFloatDiv            0      0.00%     59.96% # Number of instructions issued per FU type, per thread (Count)
system.cpu0.statIssuedInstType_0::SimdFloatMisc            0      0.00%     59.96% # Number of instructions issued per FU type, per thread (Count)
system.cpu0.statIssuedInstType_0::SimdFloatMult            0      0.00%     59.96% # Number of instructions issued per FU type, per thread (Count)
system.cpu0.statIssuedInstType_0::SimdFloatMultAcc            0      0.00%     59.96% # Number of instructions issued per FU type, per thread (Count)
system.cpu0.statIssuedInstType_0::SimdFloatSqrt            0      0.00%     59.96% # Number of instructions issued per FU type, per thread (Count)
system.cpu0.statIssuedInstType_0::SimdReduceAdd            0      0.00%     59.96% # Number of instructions issued per FU type, per thread (Count)
system.cpu0.statIssuedInstType_0::SimdReduceAlu            0      0.00%     59.96% # Number of instructions issued per FU type, per thread (Count)
system.cpu0.statIssuedInstType_0::SimdReduceCmp            0      0.00%     59.96% # Number of instructions issued per FU type, per thread (Count)
system.cpu0.statIssuedInstType_0::SimdFloatReduceAdd            0      0.00%     59.96% # Number of instructions issued per FU type, per thread (Count)
system.cpu0.statIssuedInstType_0::SimdFloatReduceCmp            0      0.00%     59.96% # Number of instructions issued per FU type, per thread (Count)
system.cpu0.statIssuedInstType_0::SimdAes            0      0.00%     59.96% # Number of instructions issued per FU type, per thread (Count)
system.cpu0.statIssuedInstType_0::SimdAesMix            0      0.00%     59.96% # Number of instructions issued per FU type, per thread (Count)
system.cpu0.statIssuedInstType_0::SimdSha1Hash            0      0.00%     59.96% # Number of instructions issued per FU type, per thread (Count)
system.cpu0.statIssuedInstType_0::SimdSha1Hash2            0      0.00%     59.96% # Number of instructions issued per FU type, per thread (Count)
system.cpu0.statIssuedInstType_0::SimdSha256Hash            0      0.00%     59.96% # Number of instructions issued per FU type, per thread (Count)
system.cpu0.statIssuedInstType_0::SimdSha256Hash2            0      0.00%     59.96% # Number of instructions issued per FU type, per thread (Count)
system.cpu0.statIssuedInstType_0::SimdShaSigma2            0      0.00%     59.96% # Number of instructions issued per FU type, per thread (Count)
system.cpu0.statIssuedInstType_0::SimdShaSigma3            0      0.00%     59.96% # Number of instructions issued per FU type, per thread (Count)
system.cpu0.statIssuedInstType_0::SimdPredAlu            0      0.00%     59.96% # Number of instructions issued per FU type, per thread (Count)
system.cpu0.statIssuedInstType_0::MemRead    315993616     13.87%     73.83% # Number of instructions issued per FU type, per thread (Count)
system.cpu0.statIssuedInstType_0::MemWrite    169986493      7.46%     81.29% # Number of instructions issued per FU type, per thread (Count)
system.cpu0.statIssuedInstType_0::FloatMemRead          394      0.00%     81.29% # Number of instructions issued per FU type, per thread (Count)
system.cpu0.statIssuedInstType_0::FloatMemWrite    426360275     18.71%    100.00% # Number of instructions issued per FU type, per thread (Count)
system.cpu0.statIssuedInstType_0::IprAccess            0      0.00%    100.00% # Number of instructions issued per FU type, per thread (Count)
system.cpu0.statIssuedInstType_0::InstPrefetch            0      0.00%    100.00% # Number of instructions issued per FU type, per thread (Count)
system.cpu0.statIssuedInstType_0::total    2278546477                       # Number of instructions issued per FU type, per thread (Count)
system.cpu0.issueRate                        0.282772                       # Inst issue rate ((Count/Cycle))
system.cpu0.fuBusy                           25426898                       # FU busy when requested (Count)
system.cpu0.fuBusyRate                       0.011159                       # FU busy rate (busy events/executed inst) ((Count/Count))
system.cpu0.intInstQueueReads             11784865950                       # Number of integer instruction queue reads (Count)
system.cpu0.intInstQueueWrites             1905687111                       # Number of integer instruction queue writes (Count)
system.cpu0.intInstQueueWakeupAccesses     1846775783                       # Number of integer instruction queue wakeup accesses (Count)
system.cpu0.fpInstQueueReads                856847867                       # Number of floating instruction queue reads (Count)
system.cpu0.fpInstQueueWrites               451441664                       # Number of floating instruction queue writes (Count)
system.cpu0.fpInstQueueWakeupAccesses       402931418                       # Number of floating instruction queue wakeup accesses (Count)
system.cpu0.vecInstQueueReads                       0                       # Number of vector instruction queue reads (Count)
system.cpu0.vecInstQueueWrites                      0                       # Number of vector instruction queue writes (Count)
system.cpu0.vecInstQueueWakeupAccesses              0                       # Number of vector instruction queue wakeup accesses (Count)
system.cpu0.intAluAccesses                 1873407517                       # Number of integer alu accesses (Count)
system.cpu0.fpAluAccesses                   430486449                       # Number of floating point alu accesses (Count)
system.cpu0.vecAluAccesses                          0                       # Number of vector alu accesses (Count)
system.cpu0.numInsts                       2275486144                       # Number of executed instructions (Count)
system.cpu0.numLoadInsts                    315593907                       # Number of load instructions executed (Count)
system.cpu0.numSquashedInsts                  3060329                       # Number of squashed instructions skipped in execute (Count)
system.cpu0.numSwp                                  0                       # Number of swp insts executed (Count)
system.cpu0.numNop                                  0                       # Number of nop insts executed (Count)
system.cpu0.numRefs                         911262937                       # Number of memory reference insts executed (Count)
system.cpu0.numBranches                     239450503                       # Number of branches executed (Count)
system.cpu0.numStoreInsts                   595669030                       # Number of stores executed (Count)
system.cpu0.numRate                          0.282392                       # Inst execution rate ((Count/Cycle))
system.cpu0.timesIdled                            818                       # Number of times that the entire CPU went into an idle state and unscheduled itself (Count)
system.cpu0.idleCycles                          73370                       # Total number of cycles that the CPU has spent unscheduled due to idling (Cycle)
system.cpu0.committedInsts                 1000000004                       # Number of Instructions Simulated (Count)
system.cpu0.committedOps                   2215873589                       # Number of Ops (including micro ops) Simulated (Count)
system.cpu0.cpi                              8.057904                       # CPI: Cycles Per Instruction ((Cycle/Count))
system.cpu0.totalCpi                         8.057904                       # CPI: Total CPI of All Threads ((Cycle/Count))
system.cpu0.ipc                              0.124102                       # IPC: Instructions Per Cycle ((Count/Cycle))
system.cpu0.totalIpc                         0.124102                       # IPC: Total IPC of All Threads ((Count/Cycle))
system.cpu0.intRegfileReads                2438762687                       # Number of integer regfile reads (Count)
system.cpu0.intRegfileWrites               1292831520                       # Number of integer regfile writes (Count)
system.cpu0.fpRegfileReads                  426361439                       # Number of floating regfile reads (Count)
system.cpu0.fpRegfileWrites                       817                       # Number of floating regfile writes (Count)
system.cpu0.ccRegfileReads                 1167717000                       # number of cc regfile reads (Count)
system.cpu0.ccRegfileWrites                 510052130                       # number of cc regfile writes (Count)
system.cpu0.miscRegfileReads               1406608065                       # number of misc regfile reads (Count)
system.cpu0.miscRegfileWrites                      72                       # number of misc regfile writes (Count)
system.cpu0.MemDepUnit__0.insertedLoads     317649439                       # Number of loads inserted to the mem dependence unit. (Count)
system.cpu0.MemDepUnit__0.insertedStores    597551208                       # Number of stores inserted to the mem dependence unit. (Count)
system.cpu0.MemDepUnit__0.conflictingLoads     51133528                       # Number of conflicting loads. (Count)
system.cpu0.MemDepUnit__0.conflictingStores     40061655                       # Number of conflicting stores. (Count)
system.cpu0.MemDepUnit__1.insertedLoads             0                       # Number of loads inserted to the mem dependence unit. (Count)
system.cpu0.MemDepUnit__1.insertedStores            0                       # Number of stores inserted to the mem dependence unit. (Count)
system.cpu0.MemDepUnit__1.conflictingLoads            0                       # Number of conflicting loads. (Count)
system.cpu0.MemDepUnit__1.conflictingStores            0                       # Number of conflicting stores. (Count)
system.cpu0.MemDepUnit__2.insertedLoads             0                       # Number of loads inserted to the mem dependence unit. (Count)
system.cpu0.MemDepUnit__2.insertedStores            0                       # Number of stores inserted to the mem dependence unit. (Count)
system.cpu0.MemDepUnit__2.conflictingLoads            0                       # Number of conflicting loads. (Count)
system.cpu0.MemDepUnit__2.conflictingStores            0                       # Number of conflicting stores. (Count)
system.cpu0.MemDepUnit__3.insertedLoads             0                       # Number of loads inserted to the mem dependence unit. (Count)
system.cpu0.MemDepUnit__3.insertedStores            0                       # Number of stores inserted to the mem dependence unit. (Count)
system.cpu0.MemDepUnit__3.conflictingLoads            0                       # Number of conflicting loads. (Count)
system.cpu0.MemDepUnit__3.conflictingStores            0                       # Number of conflicting stores. (Count)
system.cpu0.branchPred.lookups              245932946                       # Number of BP lookups (Count)
system.cpu0.branchPred.condPredicted        196809855                       # Number of conditional branches predicted (Count)
system.cpu0.branchPred.condIncorrect          1567641                       # Number of conditional branches incorrect (Count)
system.cpu0.branchPred.BTBLookups            96105942                       # Number of BTB lookups (Count)
system.cpu0.branchPred.BTBHits               96103239                       # Number of BTB hits (Count)
system.cpu0.branchPred.BTBHitRatio           0.999972                       # BTB Hit Ratio (Ratio)
system.cpu0.branchPred.RASUsed               15351392                       # Number of times the RAS was used to get a target. (Count)
system.cpu0.branchPred.RASIncorrect                 9                       # Number of incorrect RAS predictions. (Count)
system.cpu0.branchPred.indirectLookups       16877347                       # Number of indirect predictor lookups. (Count)
system.cpu0.branchPred.indirectHits          16876106                       # Number of indirect target hits. (Count)
system.cpu0.branchPred.indirectMisses            1241                       # Number of indirect misses. (Count)
system.cpu0.branchPred.indirectMispredicted          257                       # Number of mispredicted indirect branches. (Count)
system.cpu0.commit.commitSquashedInsts       69439579                       # The number of squashed insts skipped by commit (Count)
system.cpu0.commit.commitNonSpecStalls             72                       # The number of times commit has been forced to stall to communicate backwards (Count)
system.cpu0.commit.branchMispredicts          1567500                       # The number of times a branch was mispredicted (Count)
system.cpu0.commit.numCommittedDist::samples   8048230168                       # Number of insts commited each cycle (Count)
system.cpu0.commit.numCommittedDist::mean     0.275324                       # Number of insts commited each cycle (Count)
system.cpu0.commit.numCommittedDist::stdev     1.246754                       # Number of insts commited each cycle (Count)
system.cpu0.commit.numCommittedDist::underflows            0      0.00%      0.00% # Number of insts commited each cycle (Count)
system.cpu0.commit.numCommittedDist::0     7333724532     91.12%     91.12% # Number of insts commited each cycle (Count)
system.cpu0.commit.numCommittedDist::1      417060857      5.18%     96.30% # Number of insts commited each cycle (Count)
system.cpu0.commit.numCommittedDist::2       50091284      0.62%     96.93% # Number of insts commited each cycle (Count)
system.cpu0.commit.numCommittedDist::3       18806960      0.23%     97.16% # Number of insts commited each cycle (Count)
system.cpu0.commit.numCommittedDist::4       34787943      0.43%     97.59% # Number of insts commited each cycle (Count)
system.cpu0.commit.numCommittedDist::5       12092578      0.15%     97.74% # Number of insts commited each cycle (Count)
system.cpu0.commit.numCommittedDist::6        4494530      0.06%     97.80% # Number of insts commited each cycle (Count)
system.cpu0.commit.numCommittedDist::7        1744430      0.02%     97.82% # Number of insts commited each cycle (Count)
system.cpu0.commit.numCommittedDist::8      175427054      2.18%    100.00% # Number of insts commited each cycle (Count)
system.cpu0.commit.numCommittedDist::overflows            0      0.00%    100.00% # Number of insts commited each cycle (Count)
system.cpu0.commit.numCommittedDist::min_value            0                       # Number of insts commited each cycle (Count)
system.cpu0.commit.numCommittedDist::max_value            8                       # Number of insts commited each cycle (Count)
system.cpu0.commit.numCommittedDist::total   8048230168                       # Number of insts commited each cycle (Count)
system.cpu0.commit.instsCommitted          1000000004                       # Number of instructions committed (Count)
system.cpu0.commit.opsCommitted            2215873589                       # Number of ops (including micro ops) committed (Count)
system.cpu0.commit.memRefs                  881837339                       # Number of memory references committed (Count)
system.cpu0.commit.loads                    313836000                       # Number of loads committed (Count)
system.cpu0.commit.amos                             0                       # Number of atomic instructions committed (Count)
system.cpu0.commit.membars                          0                       # Number of memory barriers committed (Count)
system.cpu0.commit.branches                 235183387                       # Number of branches committed (Count)
system.cpu0.commit.vectorInstructions               0                       # Number of committed Vector instructions. (Count)
system.cpu0.commit.floating                 401281280                       # Number of committed floating point instructions. (Count)
system.cpu0.commit.integer                 2215792671                       # Number of committed integer instructions. (Count)
system.cpu0.commit.functionCalls             15296778                       # Number of function calls committed. (Count)
system.cpu0.commit.committedInstType_0::No_OpClass        77292      0.00%      0.00% # Class of committed instruction (Count)
system.cpu0.commit.committedInstType_0::IntAlu   1333954849     60.20%     60.20% # Class of committed instruction (Count)
system.cpu0.commit.committedInstType_0::IntMult           49      0.00%     60.20% # Class of committed instruction (Count)
system.cpu0.commit.committedInstType_0::IntDiv         3493      0.00%     60.20% # Class of committed instruction (Count)
system.cpu0.commit.committedInstType_0::FloatAdd           82      0.00%     60.20% # Class of committed instruction (Count)
system.cpu0.commit.committedInstType_0::FloatCmp            0      0.00%     60.20% # Class of committed instruction (Count)
system.cpu0.commit.committedInstType_0::FloatCvt          128      0.00%     60.20% # Class of committed instruction (Count)
system.cpu0.commit.committedInstType_0::FloatMult            0      0.00%     60.20% # Class of committed instruction (Count)
system.cpu0.commit.committedInstType_0::FloatMultAcc            0      0.00%     60.20% # Class of committed instruction (Count)
system.cpu0.commit.committedInstType_0::FloatDiv            0      0.00%     60.20% # Class of committed instruction (Count)
system.cpu0.commit.committedInstType_0::FloatMisc            0      0.00%     60.20% # Class of committed instruction (Count)
system.cpu0.commit.committedInstType_0::FloatSqrt            0      0.00%     60.20% # Class of committed instruction (Count)
system.cpu0.commit.committedInstType_0::SimdAdd            0      0.00%     60.20% # Class of committed instruction (Count)
system.cpu0.commit.committedInstType_0::SimdAddAcc            0      0.00%     60.20% # Class of committed instruction (Count)
system.cpu0.commit.committedInstType_0::SimdAlu           26      0.00%     60.20% # Class of committed instruction (Count)
system.cpu0.commit.committedInstType_0::SimdCmp            0      0.00%     60.20% # Class of committed instruction (Count)
system.cpu0.commit.committedInstType_0::SimdCvt          126      0.00%     60.20% # Class of committed instruction (Count)
system.cpu0.commit.committedInstType_0::SimdMisc          205      0.00%     60.20% # Class of committed instruction (Count)
system.cpu0.commit.committedInstType_0::SimdMult            0      0.00%     60.20% # Class of committed instruction (Count)
system.cpu0.commit.committedInstType_0::SimdMultAcc            0      0.00%     60.20% # Class of committed instruction (Count)
system.cpu0.commit.committedInstType_0::SimdShift            0      0.00%     60.20% # Class of committed instruction (Count)
system.cpu0.commit.committedInstType_0::SimdShiftAcc            0      0.00%     60.20% # Class of committed instruction (Count)
system.cpu0.commit.committedInstType_0::SimdDiv            0      0.00%     60.20% # Class of committed instruction (Count)
system.cpu0.commit.committedInstType_0::SimdSqrt            0      0.00%     60.20% # Class of committed instruction (Count)
system.cpu0.commit.committedInstType_0::SimdFloatAdd            0      0.00%     60.20% # Class of committed instruction (Count)
system.cpu0.commit.committedInstType_0::SimdFloatAlu            0      0.00%     60.20% # Class of committed instruction (Count)
system.cpu0.commit.committedInstType_0::SimdFloatCmp            0      0.00%     60.20% # Class of committed instruction (Count)
system.cpu0.commit.committedInstType_0::SimdFloatCvt            0      0.00%     60.20% # Class of committed instruction (Count)
system.cpu0.commit.committedInstType_0::SimdFloatDiv            0      0.00%     60.20% # Class of committed instruction (Count)
system.cpu0.commit.committedInstType_0::SimdFloatMisc            0      0.00%     60.20% # Class of committed instruction (Count)
system.cpu0.commit.committedInstType_0::SimdFloatMult            0      0.00%     60.20% # Class of committed instruction (Count)
system.cpu0.commit.committedInstType_0::SimdFloatMultAcc            0      0.00%     60.20% # Class of committed instruction (Count)
system.cpu0.commit.committedInstType_0::SimdFloatSqrt            0      0.00%     60.20% # Class of committed instruction (Count)
system.cpu0.commit.committedInstType_0::SimdReduceAdd            0      0.00%     60.20% # Class of committed instruction (Count)
system.cpu0.commit.committedInstType_0::SimdReduceAlu            0      0.00%     60.20% # Class of committed instruction (Count)
system.cpu0.commit.committedInstType_0::SimdReduceCmp            0      0.00%     60.20% # Class of committed instruction (Count)
system.cpu0.commit.committedInstType_0::SimdFloatReduceAdd            0      0.00%     60.20% # Class of committed instruction (Count)
system.cpu0.commit.committedInstType_0::SimdFloatReduceCmp            0      0.00%     60.20% # Class of committed instruction (Count)
system.cpu0.commit.committedInstType_0::SimdAes            0      0.00%     60.20% # Class of committed instruction (Count)
system.cpu0.commit.committedInstType_0::SimdAesMix            0      0.00%     60.20% # Class of committed instruction (Count)
system.cpu0.commit.committedInstType_0::SimdSha1Hash            0      0.00%     60.20% # Class of committed instruction (Count)
system.cpu0.commit.committedInstType_0::SimdSha1Hash2            0      0.00%     60.20% # Class of committed instruction (Count)
system.cpu0.commit.committedInstType_0::SimdSha256Hash            0      0.00%     60.20% # Class of committed instruction (Count)
system.cpu0.commit.committedInstType_0::SimdSha256Hash2            0      0.00%     60.20% # Class of committed instruction (Count)
system.cpu0.commit.committedInstType_0::SimdShaSigma2            0      0.00%     60.20% # Class of committed instruction (Count)
system.cpu0.commit.committedInstType_0::SimdShaSigma3            0      0.00%     60.20% # Class of committed instruction (Count)
system.cpu0.commit.committedInstType_0::SimdPredAlu            0      0.00%     60.20% # Class of committed instruction (Count)
system.cpu0.commit.committedInstType_0::MemRead    313835653     14.16%     74.37% # Class of committed instruction (Count)
system.cpu0.commit.committedInstType_0::MemWrite    166721048      7.52%     81.89% # Class of committed instruction (Count)
system.cpu0.commit.committedInstType_0::FloatMemRead          347      0.00%     81.89% # Class of committed instruction (Count)
system.cpu0.commit.committedInstType_0::FloatMemWrite    401280291     18.11%    100.00% # Class of committed instruction (Count)
system.cpu0.commit.committedInstType_0::IprAccess            0      0.00%    100.00% # Class of committed instruction (Count)
system.cpu0.commit.committedInstType_0::InstPrefetch            0      0.00%    100.00% # Class of committed instruction (Count)
system.cpu0.commit.committedInstType_0::total   2215873589                       # Class of committed instruction (Count)
system.cpu0.commit.commitEligibleSamples    175427054                       # number cycles where commit BW limit reached (Cycle)
system.cpu0.dcache.demandHits::cpu0.data    722641197                       # number of demand (read+write) hits (Count)
system.cpu0.dcache.demandHits::total        722641197                       # number of demand (read+write) hits (Count)
system.cpu0.dcache.overallHits::cpu0.data    722641197                       # number of overall hits (Count)
system.cpu0.dcache.overallHits::total       722641197                       # number of overall hits (Count)
system.cpu0.dcache.demandMisses::cpu0.data     61950140                       # number of demand (read+write) misses (Count)
system.cpu0.dcache.demandMisses::total       61950140                       # number of demand (read+write) misses (Count)
system.cpu0.dcache.overallMisses::cpu0.data     61950140                       # number of overall misses (Count)
system.cpu0.dcache.overallMisses::total      61950140                       # number of overall misses (Count)
system.cpu0.dcache.demandMissLatency::cpu0.data 3834201812480                       # number of demand (read+write) miss ticks (Tick)
system.cpu0.dcache.demandMissLatency::total 3834201812480                       # number of demand (read+write) miss ticks (Tick)
system.cpu0.dcache.overallMissLatency::cpu0.data 3834201812480                       # number of overall miss ticks (Tick)
system.cpu0.dcache.overallMissLatency::total 3834201812480                       # number of overall miss ticks (Tick)
system.cpu0.dcache.demandAccesses::cpu0.data    784591337                       # number of demand (read+write) accesses (Count)
system.cpu0.dcache.demandAccesses::total    784591337                       # number of demand (read+write) accesses (Count)
system.cpu0.dcache.overallAccesses::cpu0.data    784591337                       # number of overall (read+write) accesses (Count)
system.cpu0.dcache.overallAccesses::total    784591337                       # number of overall (read+write) accesses (Count)
system.cpu0.dcache.demandMissRate::cpu0.data     0.078958                       # miss rate for demand accesses (Ratio)
system.cpu0.dcache.demandMissRate::total     0.078958                       # miss rate for demand accesses (Ratio)
system.cpu0.dcache.overallMissRate::cpu0.data     0.078958                       # miss rate for overall accesses (Ratio)
system.cpu0.dcache.overallMissRate::total     0.078958                       # miss rate for overall accesses (Ratio)
system.cpu0.dcache.demandAvgMissLatency::cpu0.data 61891.737654                       # average overall miss latency in ticks ((Tick/Count))
system.cpu0.dcache.demandAvgMissLatency::total 61891.737654                       # average overall miss latency in ticks ((Tick/Count))
system.cpu0.dcache.overallAvgMissLatency::cpu0.data 61891.737654                       # average overall miss latency ((Tick/Count))
system.cpu0.dcache.overallAvgMissLatency::total 61891.737654                       # average overall miss latency ((Tick/Count))
system.cpu0.dcache.blockedCycles::no_mshrs       578405                       # number of cycles access was blocked (Cycle)
system.cpu0.dcache.blockedCycles::no_targets          568                       # number of cycles access was blocked (Cycle)
system.cpu0.dcache.blockedCauses::no_mshrs         7078                       # number of times access was blocked (Count)
system.cpu0.dcache.blockedCauses::no_targets            4                       # number of times access was blocked (Count)
system.cpu0.dcache.avgBlocked::no_mshrs     81.718706                       # average number of cycles each access was blocked ((Cycle/Count))
system.cpu0.dcache.avgBlocked::no_targets          142                       # average number of cycles each access was blocked ((Cycle/Count))
system.cpu0.dcache.writebacks::writebacks     60744144                       # number of writebacks (Count)
system.cpu0.dcache.writebacks::total         60744144                       # number of writebacks (Count)
system.cpu0.dcache.demandMshrHits::cpu0.data       221645                       # number of demand (read+write) MSHR hits (Count)
system.cpu0.dcache.demandMshrHits::total       221645                       # number of demand (read+write) MSHR hits (Count)
system.cpu0.dcache.overallMshrHits::cpu0.data       221645                       # number of overall MSHR hits (Count)
system.cpu0.dcache.overallMshrHits::total       221645                       # number of overall MSHR hits (Count)
system.cpu0.dcache.demandMshrMisses::cpu0.data     61728495                       # number of demand (read+write) MSHR misses (Count)
system.cpu0.dcache.demandMshrMisses::total     61728495                       # number of demand (read+write) MSHR misses (Count)
system.cpu0.dcache.overallMshrMisses::cpu0.data     61728495                       # number of overall MSHR misses (Count)
system.cpu0.dcache.overallMshrMisses::total     61728495                       # number of overall MSHR misses (Count)
system.cpu0.dcache.demandMshrMissLatency::cpu0.data 3760705051481                       # number of demand (read+write) MSHR miss ticks (Tick)
system.cpu0.dcache.demandMshrMissLatency::total 3760705051481                       # number of demand (read+write) MSHR miss ticks (Tick)
system.cpu0.dcache.overallMshrMissLatency::cpu0.data 3760705051481                       # number of overall MSHR miss ticks (Tick)
system.cpu0.dcache.overallMshrMissLatency::total 3760705051481                       # number of overall MSHR miss ticks (Tick)
system.cpu0.dcache.demandMshrMissRate::cpu0.data     0.078676                       # mshr miss ratio for demand accesses (Ratio)
system.cpu0.dcache.demandMshrMissRate::total     0.078676                       # mshr miss ratio for demand accesses (Ratio)
system.cpu0.dcache.overallMshrMissRate::cpu0.data     0.078676                       # mshr miss ratio for overall accesses (Ratio)
system.cpu0.dcache.overallMshrMissRate::total     0.078676                       # mshr miss ratio for overall accesses (Ratio)
system.cpu0.dcache.demandAvgMshrMissLatency::cpu0.data 60923.323199                       # average overall mshr miss latency ((Tick/Count))
system.cpu0.dcache.demandAvgMshrMissLatency::total 60923.323199                       # average overall mshr miss latency ((Tick/Count))
system.cpu0.dcache.overallAvgMshrMissLatency::cpu0.data 60923.323199                       # average overall mshr miss latency ((Tick/Count))
system.cpu0.dcache.overallAvgMshrMissLatency::total 60923.323199                       # average overall mshr miss latency ((Tick/Count))
system.cpu0.dcache.replacements              61727982                       # number of replacements (Count)
system.cpu0.dcache.ReadReq.hits::cpu0.data    207443570                       # number of ReadReq hits (Count)
system.cpu0.dcache.ReadReq.hits::total      207443570                       # number of ReadReq hits (Count)
system.cpu0.dcache.ReadReq.misses::cpu0.data      9146430                       # number of ReadReq misses (Count)
system.cpu0.dcache.ReadReq.misses::total      9146430                       # number of ReadReq misses (Count)
system.cpu0.dcache.ReadReq.missLatency::cpu0.data 602011020000                       # number of ReadReq miss ticks (Tick)
system.cpu0.dcache.ReadReq.missLatency::total 602011020000                       # number of ReadReq miss ticks (Tick)
system.cpu0.dcache.ReadReq.accesses::cpu0.data    216590000                       # number of ReadReq accesses(hits+misses) (Count)
system.cpu0.dcache.ReadReq.accesses::total    216590000                       # number of ReadReq accesses(hits+misses) (Count)
system.cpu0.dcache.ReadReq.missRate::cpu0.data     0.042229                       # miss rate for ReadReq accesses (Ratio)
system.cpu0.dcache.ReadReq.missRate::total     0.042229                       # miss rate for ReadReq accesses (Ratio)
system.cpu0.dcache.ReadReq.avgMissLatency::cpu0.data 65819.234390                       # average ReadReq miss latency ((Tick/Count))
system.cpu0.dcache.ReadReq.avgMissLatency::total 65819.234390                       # average ReadReq miss latency ((Tick/Count))
system.cpu0.dcache.ReadReq.mshrHits::cpu0.data       221350                       # number of ReadReq MSHR hits (Count)
system.cpu0.dcache.ReadReq.mshrHits::total       221350                       # number of ReadReq MSHR hits (Count)
system.cpu0.dcache.ReadReq.mshrMisses::cpu0.data      8925080                       # number of ReadReq MSHR misses (Count)
system.cpu0.dcache.ReadReq.mshrMisses::total      8925080                       # number of ReadReq MSHR misses (Count)
system.cpu0.dcache.ReadReq.mshrMissLatency::cpu0.data 581326737000                       # number of ReadReq MSHR miss ticks (Tick)
system.cpu0.dcache.ReadReq.mshrMissLatency::total 581326737000                       # number of ReadReq MSHR miss ticks (Tick)
system.cpu0.dcache.ReadReq.mshrMissRate::cpu0.data     0.041207                       # mshr miss rate for ReadReq accesses (Ratio)
system.cpu0.dcache.ReadReq.mshrMissRate::total     0.041207                       # mshr miss rate for ReadReq accesses (Ratio)
system.cpu0.dcache.ReadReq.avgMshrMissLatency::cpu0.data 65134.064569                       # average ReadReq mshr miss latency ((Tick/Count))
system.cpu0.dcache.ReadReq.avgMshrMissLatency::total 65134.064569                       # average ReadReq mshr miss latency ((Tick/Count))
system.cpu0.dcache.WriteReq.hits::cpu0.data    515197627                       # number of WriteReq hits (Count)
system.cpu0.dcache.WriteReq.hits::total     515197627                       # number of WriteReq hits (Count)
system.cpu0.dcache.WriteReq.misses::cpu0.data     52803710                       # number of WriteReq misses (Count)
system.cpu0.dcache.WriteReq.misses::total     52803710                       # number of WriteReq misses (Count)
system.cpu0.dcache.WriteReq.missLatency::cpu0.data 3232190792480                       # number of WriteReq miss ticks (Tick)
system.cpu0.dcache.WriteReq.missLatency::total 3232190792480                       # number of WriteReq miss ticks (Tick)
system.cpu0.dcache.WriteReq.accesses::cpu0.data    568001337                       # number of WriteReq accesses(hits+misses) (Count)
system.cpu0.dcache.WriteReq.accesses::total    568001337                       # number of WriteReq accesses(hits+misses) (Count)
system.cpu0.dcache.WriteReq.missRate::cpu0.data     0.092964                       # miss rate for WriteReq accesses (Ratio)
system.cpu0.dcache.WriteReq.missRate::total     0.092964                       # miss rate for WriteReq accesses (Ratio)
system.cpu0.dcache.WriteReq.avgMissLatency::cpu0.data 61211.433675                       # average WriteReq miss latency ((Tick/Count))
system.cpu0.dcache.WriteReq.avgMissLatency::total 61211.433675                       # average WriteReq miss latency ((Tick/Count))
system.cpu0.dcache.WriteReq.mshrHits::cpu0.data          295                       # number of WriteReq MSHR hits (Count)
system.cpu0.dcache.WriteReq.mshrHits::total          295                       # number of WriteReq MSHR hits (Count)
system.cpu0.dcache.WriteReq.mshrMisses::cpu0.data     52803415                       # number of WriteReq MSHR misses (Count)
system.cpu0.dcache.WriteReq.mshrMisses::total     52803415                       # number of WriteReq MSHR misses (Count)
system.cpu0.dcache.WriteReq.mshrMissLatency::cpu0.data 3179378314481                       # number of WriteReq MSHR miss ticks (Tick)
system.cpu0.dcache.WriteReq.mshrMissLatency::total 3179378314481                       # number of WriteReq MSHR miss ticks (Tick)
system.cpu0.dcache.WriteReq.mshrMissRate::cpu0.data     0.092964                       # mshr miss rate for WriteReq accesses (Ratio)
system.cpu0.dcache.WriteReq.mshrMissRate::total     0.092964                       # mshr miss rate for WriteReq accesses (Ratio)
system.cpu0.dcache.WriteReq.avgMshrMissLatency::cpu0.data 60211.604012                       # average WriteReq mshr miss latency ((Tick/Count))
system.cpu0.dcache.WriteReq.avgMshrMissLatency::total 60211.604012                       # average WriteReq mshr miss latency ((Tick/Count))
system.cpu0.dcache.power_state.pwrStateResidencyTicks::UNDEFINED 4028951978000                       # Cumulative time (in ticks) in various power states (Tick)
system.cpu0.dcache.tags.tagsInUse          511.996576                       # Average ticks per tags in use ((Tick/Count))
system.cpu0.dcache.tags.totalRefs           784369692                       # Total number of references to valid blocks. (Count)
system.cpu0.dcache.tags.sampledRefs          61728494                       # Sample count of references to valid blocks. (Count)
system.cpu0.dcache.tags.avgRefs             12.706769                       # Average number of references to valid blocks. ((Count/Count))
system.cpu0.dcache.tags.warmupTick             148000                       # The tick when the warmup percentage was hit. (Tick)
system.cpu0.dcache.tags.occupancies::cpu0.data   511.996576                       # Average occupied blocks per tick, per requestor ((Count/Tick))
system.cpu0.dcache.tags.avgOccs::cpu0.data     0.999993                       # Average percentage of cache occupancy ((Ratio/Tick))
system.cpu0.dcache.tags.avgOccs::total       0.999993                       # Average percentage of cache occupancy ((Ratio/Tick))
system.cpu0.dcache.tags.occupanciesTaskId::1024          512                       # Occupied blocks per task id (Count)
system.cpu0.dcache.tags.ageTaskId_1024::0          216                       # Occupied blocks per task id, per block age (Count)
system.cpu0.dcache.tags.ageTaskId_1024::1          289                       # Occupied blocks per task id, per block age (Count)
system.cpu0.dcache.tags.ageTaskId_1024::4            7                       # Occupied blocks per task id, per block age (Count)
system.cpu0.dcache.tags.ratioOccsTaskId::1024            1                       # Ratio of occupied blocks and all blocks, per task id (Ratio)
system.cpu0.dcache.tags.tagAccesses        6338459190                       # Number of tag accesses (Count)
system.cpu0.dcache.tags.dataAccesses       6338459190                       # Number of data accesses (Count)
system.cpu0.dcache.tags.power_state.pwrStateResidencyTicks::UNDEFINED 4028951978000                       # Cumulative time (in ticks) in various power states (Tick)
system.cpu0.decode.idleCycles               104329293                       # Number of cycles decode is idle (Cycle)
system.cpu0.decode.blockedCycles           7617785395                       # Number of cycles decode is blocked (Cycle)
system.cpu0.decode.runCycles                241289073                       # Number of cycles decode is running (Cycle)
system.cpu0.decode.unblockCycles             92027761                       # Number of cycles decode is unblocking (Cycle)
system.cpu0.decode.squashCycles               2399065                       # Number of cycles decode is squashing (Cycle)
system.cpu0.decode.branchResolved            94347422                       # Number of times decode resolved a branch (Count)
system.cpu0.decode.branchMispred                  818                       # Number of times decode detected a branch misprediction (Count)
system.cpu0.decode.decodedInsts            2311319427                       # Number of instructions handled by decode (Count)
system.cpu0.decode.squashedInsts                 4028                       # Number of squashed instructions handled by decode (Count)
system.cpu0.dtb_walker_cache.blockedCycles::no_mshrs            0                       # number of cycles access was blocked (Cycle)
system.cpu0.dtb_walker_cache.blockedCycles::no_targets            0                       # number of cycles access was blocked (Cycle)
system.cpu0.dtb_walker_cache.blockedCauses::no_mshrs            0                       # number of times access was blocked (Count)
system.cpu0.dtb_walker_cache.blockedCauses::no_targets            0                       # number of times access was blocked (Count)
system.cpu0.dtb_walker_cache.avgBlocked::no_mshrs          nan                       # average number of cycles each access was blocked ((Cycle/Count))
system.cpu0.dtb_walker_cache.avgBlocked::no_targets          nan                       # average number of cycles each access was blocked ((Cycle/Count))
system.cpu0.dtb_walker_cache.replacements            0                       # number of replacements (Count)
system.cpu0.dtb_walker_cache.power_state.pwrStateResidencyTicks::UNDEFINED 4028951978000                       # Cumulative time (in ticks) in various power states (Tick)
system.cpu0.dtb_walker_cache.tags.tagsInUse            0                       # Average ticks per tags in use ((Tick/Count))
system.cpu0.dtb_walker_cache.tags.totalRefs            0                       # Total number of references to valid blocks. (Count)
system.cpu0.dtb_walker_cache.tags.sampledRefs            0                       # Sample count of references to valid blocks. (Count)
system.cpu0.dtb_walker_cache.tags.avgRefs          nan                       # Average number of references to valid blocks. ((Count/Count))
system.cpu0.dtb_walker_cache.tags.warmupTick            0                       # The tick when the warmup percentage was hit. (Tick)
system.cpu0.dtb_walker_cache.tags.tagAccesses            0                       # Number of tag accesses (Count)
system.cpu0.dtb_walker_cache.tags.dataAccesses            0                       # Number of data accesses (Count)
system.cpu0.dtb_walker_cache.tags.power_state.pwrStateResidencyTicks::UNDEFINED 4028951978000                       # Cumulative time (in ticks) in various power states (Tick)
system.cpu0.fetch.icacheStallCycles         100054502                       # Number of cycles fetch is stalled on an Icache miss (Cycle)
system.cpu0.fetch.insts                    1066243386                       # Number of instructions fetch has processed (Count)
system.cpu0.fetch.branches                  245932946                       # Number of branches that fetch encountered (Count)
system.cpu0.fetch.predictedBranches         128330737                       # Number of branches that fetch has predicted taken (Count)
system.cpu0.fetch.cycles                   7955370888                       # Number of cycles fetch has run and was not squashing or blocked (Cycle)
system.cpu0.fetch.squashCycles                4799720                       # Number of cycles fetch has spent squashing (Cycle)
system.cpu0.fetch.miscStallCycles                 694                       # Number of cycles fetch has spent waiting on interrupts, or bad addresses, or out of MSHRs (Cycle)
system.cpu0.fetch.pendingTrapStallCycles         4628                       # Number of stall cycles due to pending traps (Cycle)
system.cpu0.fetch.icacheWaitRetryStallCycles           15                       # Number of stall cycles due to full MSHR (Cycle)
system.cpu0.fetch.cacheLines                 98504646                       # Number of cache lines fetched (Count)
system.cpu0.fetch.icacheSquashes                47946                       # Number of outstanding Icache misses that were squashed (Count)
system.cpu0.fetch.nisnDist::samples        8057830587                       # Number of instructions fetched each cycle (Total) (Count)
system.cpu0.fetch.nisnDist::mean             0.291495                       # Number of instructions fetched each cycle (Total) (Count)
system.cpu0.fetch.nisnDist::stdev            1.403541                       # Number of instructions fetched each cycle (Total) (Count)
system.cpu0.fetch.nisnDist::underflows              0      0.00%      0.00% # Number of instructions fetched each cycle (Total) (Count)
system.cpu0.fetch.nisnDist::0              7680656538     95.32%     95.32% # Number of instructions fetched each cycle (Total) (Count)
system.cpu0.fetch.nisnDist::1                 5767334      0.07%     95.39% # Number of instructions fetched each cycle (Total) (Count)
system.cpu0.fetch.nisnDist::2                21175613      0.26%     95.65% # Number of instructions fetched each cycle (Total) (Count)
system.cpu0.fetch.nisnDist::3                61436868      0.76%     96.42% # Number of instructions fetched each cycle (Total) (Count)
system.cpu0.fetch.nisnDist::4                 6648760      0.08%     96.50% # Number of instructions fetched each cycle (Total) (Count)
system.cpu0.fetch.nisnDist::5                33457440      0.42%     96.91% # Number of instructions fetched each cycle (Total) (Count)
system.cpu0.fetch.nisnDist::6                30350464      0.38%     97.29% # Number of instructions fetched each cycle (Total) (Count)
system.cpu0.fetch.nisnDist::7                 6294976      0.08%     97.37% # Number of instructions fetched each cycle (Total) (Count)
system.cpu0.fetch.nisnDist::8               212042594      2.63%    100.00% # Number of instructions fetched each cycle (Total) (Count)
system.cpu0.fetch.nisnDist::overflows               0      0.00%    100.00% # Number of instructions fetched each cycle (Total) (Count)
system.cpu0.fetch.nisnDist::min_value               0                       # Number of instructions fetched each cycle (Total) (Count)
system.cpu0.fetch.nisnDist::max_value               8                       # Number of instructions fetched each cycle (Total) (Count)
system.cpu0.fetch.nisnDist::total          8057830587                       # Number of instructions fetched each cycle (Total) (Count)
system.cpu0.fetch.branchRate                 0.030521                       # Number of branch fetches per cycle (Ratio)
system.cpu0.fetch.rate                       0.132323                       # Number of inst fetches per cycle ((Count/Cycle))
system.cpu0.icache.demandHits::cpu0.inst     98502904                       # number of demand (read+write) hits (Count)
system.cpu0.icache.demandHits::total         98502904                       # number of demand (read+write) hits (Count)
system.cpu0.icache.overallHits::cpu0.inst     98502904                       # number of overall hits (Count)
system.cpu0.icache.overallHits::total        98502904                       # number of overall hits (Count)
system.cpu0.icache.demandMisses::cpu0.inst         1742                       # number of demand (read+write) misses (Count)
system.cpu0.icache.demandMisses::total           1742                       # number of demand (read+write) misses (Count)
system.cpu0.icache.overallMisses::cpu0.inst         1742                       # number of overall misses (Count)
system.cpu0.icache.overallMisses::total          1742                       # number of overall misses (Count)
system.cpu0.icache.demandMissLatency::cpu0.inst    101653500                       # number of demand (read+write) miss ticks (Tick)
system.cpu0.icache.demandMissLatency::total    101653500                       # number of demand (read+write) miss ticks (Tick)
system.cpu0.icache.overallMissLatency::cpu0.inst    101653500                       # number of overall miss ticks (Tick)
system.cpu0.icache.overallMissLatency::total    101653500                       # number of overall miss ticks (Tick)
system.cpu0.icache.demandAccesses::cpu0.inst     98504646                       # number of demand (read+write) accesses (Count)
system.cpu0.icache.demandAccesses::total     98504646                       # number of demand (read+write) accesses (Count)
system.cpu0.icache.overallAccesses::cpu0.inst     98504646                       # number of overall (read+write) accesses (Count)
system.cpu0.icache.overallAccesses::total     98504646                       # number of overall (read+write) accesses (Count)
system.cpu0.icache.demandMissRate::cpu0.inst     0.000018                       # miss rate for demand accesses (Ratio)
system.cpu0.icache.demandMissRate::total     0.000018                       # miss rate for demand accesses (Ratio)
system.cpu0.icache.overallMissRate::cpu0.inst     0.000018                       # miss rate for overall accesses (Ratio)
system.cpu0.icache.overallMissRate::total     0.000018                       # miss rate for overall accesses (Ratio)
system.cpu0.icache.demandAvgMissLatency::cpu0.inst 58354.477612                       # average overall miss latency in ticks ((Tick/Count))
system.cpu0.icache.demandAvgMissLatency::total 58354.477612                       # average overall miss latency in ticks ((Tick/Count))
system.cpu0.icache.overallAvgMissLatency::cpu0.inst 58354.477612                       # average overall miss latency ((Tick/Count))
system.cpu0.icache.overallAvgMissLatency::total 58354.477612                       # average overall miss latency ((Tick/Count))
system.cpu0.icache.blockedCycles::no_mshrs          121                       # number of cycles access was blocked (Cycle)
system.cpu0.icache.blockedCycles::no_targets            0                       # number of cycles access was blocked (Cycle)
system.cpu0.icache.blockedCauses::no_mshrs            2                       # number of times access was blocked (Count)
system.cpu0.icache.blockedCauses::no_targets            0                       # number of times access was blocked (Count)
system.cpu0.icache.avgBlocked::no_mshrs     60.500000                       # average number of cycles each access was blocked ((Cycle/Count))
system.cpu0.icache.avgBlocked::no_targets          nan                       # average number of cycles each access was blocked ((Cycle/Count))
system.cpu0.icache.writebacks::writebacks          766                       # number of writebacks (Count)
system.cpu0.icache.writebacks::total              766                       # number of writebacks (Count)
system.cpu0.icache.demandMshrHits::cpu0.inst          463                       # number of demand (read+write) MSHR hits (Count)
system.cpu0.icache.demandMshrHits::total          463                       # number of demand (read+write) MSHR hits (Count)
system.cpu0.icache.overallMshrHits::cpu0.inst          463                       # number of overall MSHR hits (Count)
system.cpu0.icache.overallMshrHits::total          463                       # number of overall MSHR hits (Count)
system.cpu0.icache.demandMshrMisses::cpu0.inst         1279                       # number of demand (read+write) MSHR misses (Count)
system.cpu0.icache.demandMshrMisses::total         1279                       # number of demand (read+write) MSHR misses (Count)
system.cpu0.icache.overallMshrMisses::cpu0.inst         1279                       # number of overall MSHR misses (Count)
system.cpu0.icache.overallMshrMisses::total         1279                       # number of overall MSHR misses (Count)
system.cpu0.icache.demandMshrMissLatency::cpu0.inst     78789500                       # number of demand (read+write) MSHR miss ticks (Tick)
system.cpu0.icache.demandMshrMissLatency::total     78789500                       # number of demand (read+write) MSHR miss ticks (Tick)
system.cpu0.icache.overallMshrMissLatency::cpu0.inst     78789500                       # number of overall MSHR miss ticks (Tick)
system.cpu0.icache.overallMshrMissLatency::total     78789500                       # number of overall MSHR miss ticks (Tick)
system.cpu0.icache.demandMshrMissRate::cpu0.inst     0.000013                       # mshr miss ratio for demand accesses (Ratio)
system.cpu0.icache.demandMshrMissRate::total     0.000013                       # mshr miss ratio for demand accesses (Ratio)
system.cpu0.icache.overallMshrMissRate::cpu0.inst     0.000013                       # mshr miss ratio for overall accesses (Ratio)
system.cpu0.icache.overallMshrMissRate::total     0.000013                       # mshr miss ratio for overall accesses (Ratio)
system.cpu0.icache.demandAvgMshrMissLatency::cpu0.inst 61602.423769                       # average overall mshr miss latency ((Tick/Count))
system.cpu0.icache.demandAvgMshrMissLatency::total 61602.423769                       # average overall mshr miss latency ((Tick/Count))
system.cpu0.icache.overallAvgMshrMissLatency::cpu0.inst 61602.423769                       # average overall mshr miss latency ((Tick/Count))
system.cpu0.icache.overallAvgMshrMissLatency::total 61602.423769                       # average overall mshr miss latency ((Tick/Count))
system.cpu0.icache.replacements                   766                       # number of replacements (Count)
system.cpu0.icache.ReadReq.hits::cpu0.inst     98502904                       # number of ReadReq hits (Count)
system.cpu0.icache.ReadReq.hits::total       98502904                       # number of ReadReq hits (Count)
system.cpu0.icache.ReadReq.misses::cpu0.inst         1742                       # number of ReadReq misses (Count)
system.cpu0.icache.ReadReq.misses::total         1742                       # number of ReadReq misses (Count)
system.cpu0.icache.ReadReq.missLatency::cpu0.inst    101653500                       # number of ReadReq miss ticks (Tick)
system.cpu0.icache.ReadReq.missLatency::total    101653500                       # number of ReadReq miss ticks (Tick)
system.cpu0.icache.ReadReq.accesses::cpu0.inst     98504646                       # number of ReadReq accesses(hits+misses) (Count)
system.cpu0.icache.ReadReq.accesses::total     98504646                       # number of ReadReq accesses(hits+misses) (Count)
system.cpu0.icache.ReadReq.missRate::cpu0.inst     0.000018                       # miss rate for ReadReq accesses (Ratio)
system.cpu0.icache.ReadReq.missRate::total     0.000018                       # miss rate for ReadReq accesses (Ratio)
system.cpu0.icache.ReadReq.avgMissLatency::cpu0.inst 58354.477612                       # average ReadReq miss latency ((Tick/Count))
system.cpu0.icache.ReadReq.avgMissLatency::total 58354.477612                       # average ReadReq miss latency ((Tick/Count))
system.cpu0.icache.ReadReq.mshrHits::cpu0.inst          463                       # number of ReadReq MSHR hits (Count)
system.cpu0.icache.ReadReq.mshrHits::total          463                       # number of ReadReq MSHR hits (Count)
system.cpu0.icache.ReadReq.mshrMisses::cpu0.inst         1279                       # number of ReadReq MSHR misses (Count)
system.cpu0.icache.ReadReq.mshrMisses::total         1279                       # number of ReadReq MSHR misses (Count)
system.cpu0.icache.ReadReq.mshrMissLatency::cpu0.inst     78789500                       # number of ReadReq MSHR miss ticks (Tick)
system.cpu0.icache.ReadReq.mshrMissLatency::total     78789500                       # number of ReadReq MSHR miss ticks (Tick)
system.cpu0.icache.ReadReq.mshrMissRate::cpu0.inst     0.000013                       # mshr miss rate for ReadReq accesses (Ratio)
system.cpu0.icache.ReadReq.mshrMissRate::total     0.000013                       # mshr miss rate for ReadReq accesses (Ratio)
system.cpu0.icache.ReadReq.avgMshrMissLatency::cpu0.inst 61602.423769                       # average ReadReq mshr miss latency ((Tick/Count))
system.cpu0.icache.ReadReq.avgMshrMissLatency::total 61602.423769                       # average ReadReq mshr miss latency ((Tick/Count))
system.cpu0.icache.power_state.pwrStateResidencyTicks::UNDEFINED 4028951978000                       # Cumulative time (in ticks) in various power states (Tick)
system.cpu0.icache.tags.tagsInUse          511.997384                       # Average ticks per tags in use ((Tick/Count))
system.cpu0.icache.tags.totalRefs            98504183                       # Total number of references to valid blocks. (Count)
system.cpu0.icache.tags.sampledRefs              1279                       # Sample count of references to valid blocks. (Count)
system.cpu0.icache.tags.avgRefs          77016.562158                       # Average number of references to valid blocks. ((Count/Count))
system.cpu0.icache.tags.warmupTick              77000                       # The tick when the warmup percentage was hit. (Tick)
system.cpu0.icache.tags.occupancies::cpu0.inst   511.997384                       # Average occupied blocks per tick, per requestor ((Count/Tick))
system.cpu0.icache.tags.avgOccs::cpu0.inst     0.999995                       # Average percentage of cache occupancy ((Ratio/Tick))
system.cpu0.icache.tags.avgOccs::total       0.999995                       # Average percentage of cache occupancy ((Ratio/Tick))
system.cpu0.icache.tags.occupanciesTaskId::1024          512                       # Occupied blocks per task id (Count)
system.cpu0.icache.tags.ageTaskId_1024::4          512                       # Occupied blocks per task id, per block age (Count)
system.cpu0.icache.tags.ratioOccsTaskId::1024            1                       # Ratio of occupied blocks and all blocks, per task id (Ratio)
system.cpu0.icache.tags.tagAccesses         788038447                       # Number of tag accesses (Count)
system.cpu0.icache.tags.dataAccesses        788038447                       # Number of data accesses (Count)
system.cpu0.icache.tags.power_state.pwrStateResidencyTicks::UNDEFINED 4028951978000                       # Cumulative time (in ticks) in various power states (Tick)
system.cpu0.iew.idleCycles                          0                       # Number of cycles IEW is idle (Cycle)
system.cpu0.iew.squashCycles                  2399065                       # Number of cycles IEW is squashing (Cycle)
system.cpu0.iew.blockCycles                   7458893                       # Number of cycles IEW is blocking (Cycle)
system.cpu0.iew.unblockCycles              3418038342                       # Number of cycles IEW is unblocking (Cycle)
system.cpu0.iew.dispatchedInsts            2286498751                       # Number of instructions dispatched to IQ (Count)
system.cpu0.iew.dispSquashedInsts                 436                       # Number of squashed instructions skipped by dispatch (Count)
system.cpu0.iew.dispLoadInsts               317649439                       # Number of dispatched load instructions (Count)
system.cpu0.iew.dispStoreInsts              597551208                       # Number of dispatched store instructions (Count)
system.cpu0.iew.dispNonSpecInsts                  117                       # Number of dispatched non-speculative instructions (Count)
system.cpu0.iew.iqFullEvents                     2258                       # Number of times the IQ has become full, causing a stall (Count)
system.cpu0.iew.lsqFullEvents              3418694008                       # Number of times the LSQ has become full, causing a stall (Count)
system.cpu0.iew.memOrderViolationEvents          4940                       # Number of memory order violations (Count)
system.cpu0.iew.predictedTakenIncorrect        808281                       # Number of branches that were predicted taken incorrectly (Count)
system.cpu0.iew.predictedNotTakenIncorrect       761776                       # Number of branches that were predicted not taken incorrectly (Count)
system.cpu0.iew.branchMispredicts             1570057                       # Number of branch mispredicts detected at execute (Count)
system.cpu0.iew.instsToCommit              2274490698                       # Cumulative count of insts sent to commit (Count)
system.cpu0.iew.writebackCount             2249707201                       # Cumulative count of insts written-back (Count)
system.cpu0.iew.producerInst               1265251257                       # Number of instructions producing a value (Count)
system.cpu0.iew.consumerInst               1856791385                       # Number of instructions consuming a value (Count)
system.cpu0.iew.wbRate                       0.279193                       # Insts written-back per cycle ((Count/Cycle))
system.cpu0.iew.wbFanout                     0.681418                       # Average fanout of values written-back ((Count/Count))
system.cpu0.interrupts.clk_domain.clock          8000                       # Clock period in ticks (Tick)
system.cpu0.itb_walker_cache.blockedCycles::no_mshrs            0                       # number of cycles access was blocked (Cycle)
system.cpu0.itb_walker_cache.blockedCycles::no_targets            0                       # number of cycles access was blocked (Cycle)
system.cpu0.itb_walker_cache.blockedCauses::no_mshrs            0                       # number of times access was blocked (Count)
system.cpu0.itb_walker_cache.blockedCauses::no_targets            0                       # number of times access was blocked (Count)
system.cpu0.itb_walker_cache.avgBlocked::no_mshrs          nan                       # average number of cycles each access was blocked ((Cycle/Count))
system.cpu0.itb_walker_cache.avgBlocked::no_targets          nan                       # average number of cycles each access was blocked ((Cycle/Count))
system.cpu0.itb_walker_cache.replacements            0                       # number of replacements (Count)
system.cpu0.itb_walker_cache.power_state.pwrStateResidencyTicks::UNDEFINED 4028951978000                       # Cumulative time (in ticks) in various power states (Tick)
system.cpu0.itb_walker_cache.tags.tagsInUse            0                       # Average ticks per tags in use ((Tick/Count))
system.cpu0.itb_walker_cache.tags.totalRefs            0                       # Total number of references to valid blocks. (Count)
system.cpu0.itb_walker_cache.tags.sampledRefs            0                       # Sample count of references to valid blocks. (Count)
system.cpu0.itb_walker_cache.tags.avgRefs          nan                       # Average number of references to valid blocks. ((Count/Count))
system.cpu0.itb_walker_cache.tags.warmupTick            0                       # The tick when the warmup percentage was hit. (Tick)
system.cpu0.itb_walker_cache.tags.tagAccesses            0                       # Number of tag accesses (Count)
system.cpu0.itb_walker_cache.tags.dataAccesses            0                       # Number of data accesses (Count)
system.cpu0.itb_walker_cache.tags.power_state.pwrStateResidencyTicks::UNDEFINED 4028951978000                       # Cumulative time (in ticks) in various power states (Tick)
system.cpu0.lsq0.forwLoads                   98973177                       # Number of loads that had data forwarded from stores (Count)
system.cpu0.lsq0.squashedLoads                3813431                       # Number of loads squashed (Count)
system.cpu0.lsq0.ignoredResponses                2086                       # Number of memory responses ignored because the instruction is squashed (Count)
system.cpu0.lsq0.memOrderViolation               4940                       # Number of memory ordering violations (Count)
system.cpu0.lsq0.squashedStores              29549865                       # Number of stores squashed (Count)
system.cpu0.lsq0.rescheduledLoads                   5                       # Number of loads that were rescheduled (Count)
system.cpu0.lsq0.blockedByCache                  5634                       # Number of times an access to memory failed due to the cache being blocked (Count)
system.cpu0.lsq0.loadToUse::samples         313835998                       # Distribution of cycle latency between the first time a load is issued and its completion (Unspecified)
system.cpu0.lsq0.loadToUse::mean             6.348977                       # Distribution of cycle latency between the first time a load is issued and its completion (Unspecified)
system.cpu0.lsq0.loadToUse::stdev           24.375668                       # Distribution of cycle latency between the first time a load is issued and its completion (Unspecified)
system.cpu0.lsq0.loadToUse::0-9             305455155     97.33%     97.33% # Distribution of cycle latency between the first time a load is issued and its completion (Unspecified)
system.cpu0.lsq0.loadToUse::10-19               25153      0.01%     97.34% # Distribution of cycle latency between the first time a load is issued and its completion (Unspecified)
system.cpu0.lsq0.loadToUse::20-29                3178      0.00%     97.34% # Distribution of cycle latency between the first time a load is issued and its completion (Unspecified)
system.cpu0.lsq0.loadToUse::30-39                9395      0.00%     97.34% # Distribution of cycle latency between the first time a load is issued and its completion (Unspecified)
system.cpu0.lsq0.loadToUse::40-49                6595      0.00%     97.34% # Distribution of cycle latency between the first time a load is issued and its completion (Unspecified)
system.cpu0.lsq0.loadToUse::50-59                6108      0.00%     97.35% # Distribution of cycle latency between the first time a load is issued and its completion (Unspecified)
system.cpu0.lsq0.loadToUse::60-69               14313      0.00%     97.35% # Distribution of cycle latency between the first time a load is issued and its completion (Unspecified)
[...]
system.mem_ctrls.dram.perBankRdBursts::6      3847339                       # Per bank write bursts (Count)
system.mem_ctrls.dram.perBankRdBursts::7      3847169                       # Per bank write bursts (Count)
system.mem_ctrls.dram.perBankRdBursts::8      3845577                       # Per bank write bursts (Count)
system.mem_ctrls.dram.perBankRdBursts::9      3843100                       # Per bank write bursts (Count)
system.mem_ctrls.dram.perBankRdBursts::10      3844343                       # Per bank write bursts (Count)
system.mem_ctrls.dram.perBankRdBursts::11      3844366                       # Per bank write bursts (Count)
system.mem_ctrls.dram.perBankRdBursts::12      3844192                       # Per bank write bursts (Count)
system.mem_ctrls.dram.perBankRdBursts::13      3843562                       # Per bank write bursts (Count)
system.mem_ctrls.dram.perBankRdBursts::14      3845871                       # Per bank write bursts (Count)
system.mem_ctrls.dram.perBankRdBursts::15      3844621                       # Per bank write bursts (Count)
system.mem_ctrls.dram.perBankWrBursts::0      3796211                       # Per bank write bursts (Count)
system.mem_ctrls.dram.perBankWrBursts::1      3796111                       # Per bank write bursts (Count)
system.mem_ctrls.dram.perBankWrBursts::2      3795708                       # Per bank write bursts (Count)
system.mem_ctrls.dram.perBankWrBursts::3      3796075                       # Per bank write bursts (Count)
system.mem_ctrls.dram.perBankWrBursts::4      3796422                       # Per bank write bursts (Count)
system.mem_ctrls.dram.perBankWrBursts::5      3796156                       # Per bank write bursts (Count)
system.mem_ctrls.dram.perBankWrBursts::6      3799673                       # Per bank write bursts (Count)
system.mem_ctrls.dram.perBankWrBursts::7      3796022                       # Per bank write bursts (Count)
system.mem_ctrls.dram.perBankWrBursts::8      3796912                       # Per bank write bursts (Count)
system.mem_ctrls.dram.perBankWrBursts::9      3795289                       # Per bank write bursts (Count)
system.mem_ctrls.dram.perBankWrBursts::10      3796530                       # Per bank write bursts (Count)
system.mem_ctrls.dram.perBankWrBursts::11      3796485                       # Per bank write bursts (Count)
system.mem_ctrls.dram.perBankWrBursts::12      3796612                       # Per bank write bursts (Count)
system.mem_ctrls.dram.perBankWrBursts::13      3795933                       # Per bank write bursts (Count)
system.mem_ctrls.dram.perBankWrBursts::14      3797893                       # Per bank write bursts (Count)
system.mem_ctrls.dram.perBankWrBursts::15      3796849                       # Per bank write bursts (Count)
system.mem_ctrls.dram.totQLat            665127367250                       # Total ticks spent queuing (Tick)
system.mem_ctrls.dram.totBusLat          308648790000                       # Total ticks spent in databus transfers (Tick)
system.mem_ctrls.dram.totMemAccLat       1822560329750                       # Total ticks spent from burst creation until serviced by the DRAM (Tick)
system.mem_ctrls.dram.avgQLat                10774.83                       # Average queueing delay per DRAM burst ((Tick/Count))
system.mem_ctrls.dram.avgBusLat               5000.00                       # Average bus latency per DRAM burst ((Tick/Count))
system.mem_ctrls.dram.avgMemAccLat           29524.83                       # Average memory access latency per DRAM burst ((Tick/Count))
system.mem_ctrls.dram.readRowHits            57112603                       # Number of row buffer hits during reads (Count)
system.mem_ctrls.dram.writeRowHits           55882396                       # Number of row buffer hits during writes (Count)
system.mem_ctrls.dram.readRowHitRate            92.52                       # Row buffer hit rate for reads (Ratio)
system.mem_ctrls.dram.writeRowHitRate           92.00                       # Row buffer hit rate for writes (Ratio)
system.mem_ctrls.dram.bytesPerActivate::samples      9479630                       # Bytes accessed per row activation (Byte)
system.mem_ctrls.dram.bytesPerActivate::mean   826.864866                       # Bytes accessed per row activation (Byte)
system.mem_ctrls.dram.bytesPerActivate::gmean   711.437350                       # Bytes accessed per row activation (Byte)
system.mem_ctrls.dram.bytesPerActivate::stdev   311.773742                       # Bytes accessed per row activation (Byte)
system.mem_ctrls.dram.bytesPerActivate::0-127       308358      3.25%      3.25% # Bytes accessed per row activation (Byte)
system.mem_ctrls.dram.bytesPerActivate::128-255       523720      5.52%      8.78% # Bytes accessed per row activation (Byte)
system.mem_ctrls.dram.bytesPerActivate::256-383       320949      3.39%     12.16% # Bytes accessed per row activation (Byte)
system.mem_ctrls.dram.bytesPerActivate::384-511       320099      3.38%     15.54% # Bytes accessed per row activation (Byte)
system.mem_ctrls.dram.bytesPerActivate::512-639      1059437     11.18%     26.72% # Bytes accessed per row activation (Byte)
system.mem_ctrls.dram.bytesPerActivate::640-767       260170      2.74%     29.46% # Bytes accessed per row activation (Byte)
system.mem_ctrls.dram.bytesPerActivate::768-895       187385      1.98%     31.44% # Bytes accessed per row activation (Byte)
system.mem_ctrls.dram.bytesPerActivate::896-1023       171120      1.81%     33.24% # Bytes accessed per row activation (Byte)
system.mem_ctrls.dram.bytesPerActivate::1024-1151      6328392     66.76%    100.00% # Bytes accessed per row activation (Byte)
system.mem_ctrls.dram.bytesPerActivate::total      9479630                       # Bytes accessed per row activation (Byte)
system.mem_ctrls.dram.bytesRead            3950704512                       # Total bytes read (Byte)
system.mem_ctrls.dram.bytesWritten         3887672384                       # Total bytes written (Byte)
system.mem_ctrls.dram.avgRdBW              980.578705                       # Average DRAM read bandwidth in MiBytes/s ((Byte/Second))
system.mem_ctrls.dram.avgWrBW              964.933910                       # Average DRAM write bandwidth in MiBytes/s ((Byte/Second))
system.mem_ctrls.dram.peakBW                 12800.00                       # Theoretical peak bandwidth in MiByte/s ((Byte/Second))
system.mem_ctrls.dram.busUtil                   15.20                       # Data bus utilization in percentage (Ratio)
system.mem_ctrls.dram.busUtilRead                7.66                       # Data bus utilization in percentage for reads (Ratio)
system.mem_ctrls.dram.busUtilWrite               7.54                       # Data bus utilization in percentage for writes (Ratio)
system.mem_ctrls.dram.pageHitRate               92.26                       # Row buffer hit rate, read and write combined (Ratio)
system.mem_ctrls.dram.power_state.pwrStateResidencyTicks::UNDEFINED 4028951978000                       # Cumulative time (in ticks) in various power states (Tick)
system.mem_ctrls.dram.rank0.actEnergy     34428915780                       # Energy for activate commands per rank (pJ) (Joule)
system.mem_ctrls.dram.rank0.preEnergy     18299379945                       # Energy for precharge commands per rank (pJ) (Joule)
system.mem_ctrls.dram.rank0.readEnergy   221155259640                       # Energy for read commands per rank (pJ) (Joule)
system.mem_ctrls.dram.rank0.writeEnergy  158543813160                       # Energy for write commands per rank (pJ) (Joule)
system.mem_ctrls.dram.rank0.refreshEnergy 318041780160.000061                       # Energy for refresh commands per rank (pJ) (Joule)
system.mem_ctrls.dram.rank0.actBackEnergy 1322764801140                       # Energy for active background per rank (pJ) (Joule)
system.mem_ctrls.dram.rank0.preBackEnergy 433210358880                       # Energy for precharge background per rank (pJ) (Joule)
system.mem_ctrls.dram.rank0.actPowerDownEnergy            0                       # Energy for active power-down per rank (pJ) (Joule)
system.mem_ctrls.dram.rank0.prePowerDownEnergy            0                       # Energy for precharge power-down per rank (pJ) (Joule)
system.mem_ctrls.dram.rank0.selfRefreshEnergy            0                       # Energy for self refresh per rank (pJ) (Joule)
system.mem_ctrls.dram.rank0.totalEnergy  2506444308705                       # Total energy per rank (pJ) (Joule)
system.mem_ctrls.dram.rank0.averagePower   622.108261                       # Core power per rank (mW) (Watt)
system.mem_ctrls.dram.rank0.totalIdleTime            0                       # Total Idle time Per DRAM Rank (Tick)
system.mem_ctrls.dram.rank0.pwrStateTime::IDLE 1101058759000                       # Time in different power states (Tick)
system.mem_ctrls.dram.rank0.pwrStateTime::REF 134535440000                       # Time in different power states (Tick)
system.mem_ctrls.dram.rank0.pwrStateTime::SREF            0                       # Time in different power states (Tick)
system.mem_ctrls.dram.rank0.pwrStateTime::PRE_PDN            0                       # Time in different power states (Tick)
system.mem_ctrls.dram.rank0.pwrStateTime::ACT 2793357779000                       # Time in different power states (Tick)
system.mem_ctrls.dram.rank0.pwrStateTime::ACT_PDN            0                       # Time in different power states (Tick)
system.mem_ctrls.dram.rank1.actEnergy     33255713820                       # Energy for activate commands per rank (pJ) (Joule)
system.mem_ctrls.dram.rank1.preEnergy     17675815905                       # Energy for precharge commands per rank (pJ) (Joule)
system.mem_ctrls.dram.rank1.readEnergy   219595212480                       # Energy for read commands per rank (pJ) (Joule)
system.mem_ctrls.dram.rank1.writeEnergy  158544465660                       # Energy for write commands per rank (pJ) (Joule)
system.mem_ctrls.dram.rank1.refreshEnergy 318041780160.000061                       # Energy for refresh commands per rank (pJ) (Joule)
system.mem_ctrls.dram.rank1.actBackEnergy 1314318549120                       # Energy for active background per rank (pJ) (Joule)
system.mem_ctrls.dram.rank1.preBackEnergy 440322992160                       # Energy for precharge background per rank (pJ) (Joule)
system.mem_ctrls.dram.rank1.actPowerDownEnergy            0                       # Energy for active power-down per rank (pJ) (Joule)
system.mem_ctrls.dram.rank1.prePowerDownEnergy            0                       # Energy for precharge power-down per rank (pJ) (Joule)
system.mem_ctrls.dram.rank1.selfRefreshEnergy            0                       # Energy for self refresh per rank (pJ) (Joule)
system.mem_ctrls.dram.rank1.totalEnergy  2501754529305                       # Total energy per rank (pJ) (Joule)
system.mem_ctrls.dram.rank1.averagePower   620.944241                       # Core power per rank (mW) (Watt)
system.mem_ctrls.dram.rank1.totalIdleTime            0                       # Total Idle time Per DRAM Rank (Tick)
system.mem_ctrls.dram.rank1.pwrStateTime::IDLE 1119511980000                       # Time in different power states (Tick)
system.mem_ctrls.dram.rank1.pwrStateTime::REF 134535440000                       # Time in different power states (Tick)
system.mem_ctrls.dram.rank1.pwrStateTime::SREF            0                       # Time in different power states (Tick)
system.mem_ctrls.dram.rank1.pwrStateTime::PRE_PDN            0                       # Time in different power states (Tick)
system.mem_ctrls.dram.rank1.pwrStateTime::ACT 2774904558000                       # Time in different power states (Tick)
system.mem_ctrls.dram.rank1.pwrStateTime::ACT_PDN            0                       # Time in different power states (Tick)
system.mem_ctrls.power_state.pwrStateResidencyTicks::UNDEFINED 4028951978000                       # Cumulative time (in ticks) in various power states (Tick)
system.membus.transDist::ReadResp             8926359                       # Transaction distribution (Count)
system.membus.transDist::WritebackDirty      60744144                       # Transaction distribution (Count)
system.membus.transDist::WritebackClean           766                       # Transaction distribution (Count)
system.membus.transDist::CleanEvict            983838                       # Transaction distribution (Count)
system.membus.transDist::UpgradeReq                 1                       # Transaction distribution (Count)
system.membus.transDist::ReadExReq           52803414                       # Transaction distribution (Count)
system.membus.transDist::ReadExResp          52803414                       # Transaction distribution (Count)
system.membus.transDist::ReadCleanReq            1279                       # Transaction distribution (Count)
system.membus.transDist::ReadSharedReq        8925080                       # Transaction distribution (Count)
system.membus.pktCount_system.cpu0.icache.mem_side_port::system.mem_ctrls.port         3323                       # Packet count per connected requestor and responder (Count)
system.membus.pktCount_system.cpu0.icache.mem_side_port::total         3323                       # Packet count per connected requestor and responder (Count)
system.membus.pktCount_system.cpu0.dcache.mem_side_port::system.mem_ctrls.port    185184971                       # Packet count per connected requestor and responder (Count)
system.membus.pktCount_system.cpu0.dcache.mem_side_port::total    185184971                       # Packet count per connected requestor and responder (Count)
system.membus.pktCount::total               185188294                       # Packet count per connected requestor and responder (Count)
system.membus.pktSize_system.cpu0.icache.mem_side_port::system.mem_ctrls.port       130816                       # Cumulative packet size per connected requestor and responder (Byte)
system.membus.pktSize_system.cpu0.icache.mem_side_port::total       130816                       # Cumulative packet size per connected requestor and responder (Byte)
system.membus.pktSize_system.cpu0.dcache.mem_side_port::system.mem_ctrls.port   7838248832                       # Cumulative packet size per connected requestor and responder (Byte)
system.membus.pktSize_system.cpu0.dcache.mem_side_port::total   7838248832                       # Cumulative packet size per connected requestor and responder (Byte)
system.membus.pktSize::total               7838379648                       # Cumulative packet size per connected requestor and responder (Byte)
system.membus.snoops                                1                       # Total snoops (Count)
system.membus.snoopTraffic                         64                       # Total snoop traffic (Byte)
system.membus.snoopFanout::samples           61729774                       # Request fanout histogram (Count)
system.membus.snoopFanout::mean              0.000000                       # Request fanout histogram (Count)
system.membus.snoopFanout::stdev             0.000402                       # Request fanout histogram (Count)
system.membus.snoopFanout::underflows               0      0.00%      0.00% # Request fanout histogram (Count)
system.membus.snoopFanout::0                 61729764    100.00%    100.00% # Request fanout histogram (Count)
system.membus.snoopFanout::1                       10      0.00%    100.00% # Request fanout histogram (Count)
system.membus.snoopFanout::2                        0      0.00%    100.00% # Request fanout histogram (Count)
system.membus.snoopFanout::3                        0      0.00%    100.00% # Request fanout histogram (Count)
system.membus.snoopFanout::4                        0      0.00%    100.00% # Request fanout histogram (Count)
system.membus.snoopFanout::5                        0      0.00%    100.00% # Request fanout histogram (Count)
system.membus.snoopFanout::6                        0      0.00%    100.00% # Request fanout histogram (Count)
system.membus.snoopFanout::7                        0      0.00%    100.00% # Request fanout histogram (Count)
system.membus.snoopFanout::8                        0      0.00%    100.00% # Request fanout histogram (Count)
system.membus.snoopFanout::9                        0      0.00%    100.00% # Request fanout histogram (Count)
system.membus.snoopFanout::10                       0      0.00%    100.00% # Request fanout histogram (Count)
system.membus.snoopFanout::11                       0      0.00%    100.00% # Request fanout histogram (Count)
system.membus.snoopFanout::12                       0      0.00%    100.00% # Request fanout histogram (Count)
system.membus.snoopFanout::13                       0      0.00%    100.00% # Request fanout histogram (Count)
system.membus.snoopFanout::14                       0      0.00%    100.00% # Request fanout histogram (Count)
system.membus.snoopFanout::15                       0      0.00%    100.00% # Request fanout histogram (Count)
system.membus.snoopFanout::16                       0      0.00%    100.00% # Request fanout histogram (Count)
system.membus.snoopFanout::overflows                0      0.00%    100.00% # Request fanout histogram (Count)
system.membus.snoopFanout::min_value                0                       # Request fanout histogram (Count)
system.membus.snoopFanout::max_value                1                       # Request fanout histogram (Count)
system.membus.snoopFanout::total             61729774                       # Request fanout histogram (Count)
system.membus.power_state.pwrStateResidencyTicks::UNDEFINED 4028951978000                       # Cumulative time (in ticks) in various power states (Tick)
system.membus.reqLayer8.occupancy        369964177500                       # Layer occupancy (ticks) (Tick)
system.membus.reqLayer8.utilization               0.1                       # Layer utilization (Ratio)
system.membus.respLayer1.occupancy            6770000                       # Layer occupancy (ticks) (Tick)
system.membus.respLayer1.utilization              0.0                       # Layer utilization (Ratio)
system.membus.respLayer2.occupancy       325422206750                       # Layer occupancy (ticks) (Tick)
system.membus.respLayer2.utilization              0.1                       # Layer utilization (Ratio)
system.membus.snoop_filter.totRequests      123458522                       # Total number of requests made to the snoop filter. (Count)
system.membus.snoop_filter.hitSingleRequests     61728748                       # Number of requests hitting in the snoop filter with a single holder of the requested data. (Count)
system.membus.snoop_filter.hitMultiRequests           10                       # Number of requests hitting in the snoop filter with multiple (>1) holders of the requested data. (Count)
system.membus.snoop_filter.totSnoops                0                       # Total number of snoops made to the snoop filter. (Count)
system.membus.snoop_filter.hitSingleSnoops            0                       # Number of snoops hitting in the snoop filter with a single holder of the requested data. (Count)
system.membus.snoop_filter.hitMultiSnoops            0                       # Number of snoops hitting in the snoop filter with multiple (>1) holders of the requested data. (Count)
system.voltage_domain.voltage                       1                       # Voltage in Volts (Volt)
system.workload.inst.arm                            0                       # number of arm instructions executed (Count)
system.workload.inst.quiesce                        0                       # number of quiesce instructions executed (Count)

---------- End Simulation Statistics   ----------
