
---------- Begin Simulation Statistics ----------
simSeconds                                   6.605144                       # Number of seconds simulated (Second)
simTicks                                 6605144374000                       # Number of ticks simulated (Tick)
finalTick                                6605144374000                       # Number of ticks from beginning of simulation (restored from checkpoints and never reset) (Tick)
simFreq                                  1000000000000                       # The number of ticks per simulated second ((Tick/Second))
hostSeconds                                  22390.04                       # Real time elapsed on the host (Second)
hostTickRate                                295003701                       # The number of ticks simulated per host second (ticks/s) ((Tick/Second))
hostMemory                                    8839336                       # Number of bytes of host memory used (Byte)
simInsts                                   1000000001                       # Number of instructions simulated (Count)
simOps                                     1828604684                       # Number of ops (including micro ops) simulated (Count)
hostInstRate                                    44663                       # Simulator instruction rate (inst/s) ((Count/Second))
hostOpRate                                      81670                       # Simulator op (including micro ops) rate (op/s) ((Count/Second))
system.clk_domain.clock                          1000                       # Clock period in ticks (Tick)
system.cpu.numCycles                      13210288749                       # Number of cpu cycles simulated (Cycle)
system.cpu.numWorkItemsStarted                      0                       # Number of work items this cpu started (Count)
system.cpu.numWorkItemsCompleted                    0                       # Number of work items this cpu completed (Count)
system.cpu.instsAdded                      1890823916                       # Number of instructions added to the IQ (excludes non-spec) (Count)
system.cpu.nonSpecInstsAdded                      818                       # Number of non-speculative instructions added to the IQ (Count)
system.cpu.instsIssued                     1890683246                       # Number of instructions issued (Count)
system.cpu.squashedInstsIssued                  26062                       # Number of squashed instructions issued (Count)
system.cpu.squashedInstsExamined             62219932                       # Number of squashed instructions iterated over during squash; mainly for profiling (Count)
system.cpu.squashedOperandsExamined         109604977                       # Number of squashed operands that are examined and possibly removed from graph (Count)
system.cpu.squashedNonSpecRemoved                 302                       # Number of squashed non-spec instructions that were removed (Count)
system.cpu.numIssuedDist::samples         13210020374                       # Number of insts issued each cycle (Count)
system.cpu.numIssuedDist::mean               0.143125                       # Number of insts issued each cycle (Count)
system.cpu.numIssuedDist::stdev              0.660270                       # Number of insts issued each cycle (Count)
system.cpu.numIssuedDist::underflows                0      0.00%      0.00% # Number of insts issued each cycle (Count)
system.cpu.numIssuedDist::0               12177622494     92.18%     92.18% # Number of insts issued each cycle (Count)
system.cpu.numIssuedDist::1                 707320983      5.35%     97.54% # Number of insts issued each cycle (Count)
system.cpu.numIssuedDist::2                 129402882      0.98%     98.52% # Number of insts issued each cycle (Count)
system.cpu.numIssuedDist::3                  46478599      0.35%     98.87% # Number of insts issued each cycle (Count)
system.cpu.numIssuedDist::4                  54518782      0.41%     99.28% # Number of insts issued each cycle (Count)
system.cpu.numIssuedDist::5                  44742196      0.34%     99.62% # Number of insts issued each cycle (Count)
system.cpu.numIssuedDist::6                  20905529      0.16%     99.78% # Number of insts issued each cycle (Count)
system.cpu.numIssuedDist::7                  14329852      0.11%     99.89% # Number of insts issued each cycle (Count)
system.cpu.numIssuedDist::8                  14699057      0.11%    100.00% # Number of insts issued each cycle (Count)
system.cpu.numIssuedDist::overflows                 0      0.00%    100.00% # Number of insts issued each cycle (Count)
system.cpu.numIssuedDist::min_value                 0                       # Number of insts issued each cycle (Count)
system.cpu.numIssuedDist::max_value                 8                       # Number of insts issued each cycle (Count)
system.cpu.numIssuedDist::total           13210020374                       # Number of insts issued each cycle (Count)
system.cpu.statFuBusy::No_OpClass                   0      0.00%      0.00% # attempts to use FU when none available (Count)
system.cpu.statFuBusy::IntAlu                 1514666     12.48%     12.48% # attempts to use FU when none available (Count)
system.cpu.statFuBusy::IntMult                      0      0.00%     12.48% # attempts to use FU when none available (Count)
system.cpu.statFuBusy::IntDiv                       0      0.00%     12.48% # attempts to use FU when none available (Count)
system.cpu.statFuBusy::FloatAdd                     0      0.00%     12.48% # attempts to use FU when none available (Count)
system.cpu.statFuBusy::FloatCmp                     0      0.00%     12.48% # attempts to use FU when none available (Count)
system.cpu.statFuBusy::FloatCvt                     1      0.00%     12.48% # attempts to use FU when none available (Count)
system.cpu.statFuBusy::FloatMult                    0      0.00%     12.48% # attempts to use FU when none available (Count)
system.cpu.statFuBusy::FloatMultAcc                 0      0.00%     12.48% # attempts to use FU when none available (Count)
system.cpu.statFuBusy::FloatDiv                     0      0.00%     12.48% # attempts to use FU when none available (Count)
system.cpu.statFuBusy::FloatMisc                    0      0.00%     12.48% # attempts to use FU when none available (Count)
system.cpu.statFuBusy::FloatSqrt                    0      0.00%     12.48% # attempts to use FU when none available (Count)
system.cpu.statFuBusy::SimdAdd                      0      0.00%     12.48% # attempts to use FU when none available (Count)
system.cpu.statFuBusy::SimdAddAcc                   0      0.00%     12.48% # attempts to use FU when none available (Count)
system.cpu.statFuBusy::SimdAlu                     42      0.00%     12.48% # attempts to use FU when none available (Count)
system.cpu.statFuBusy::SimdCmp                      0      0.00%     12.48% # attempts to use FU when none available (Count)
system.cpu.statFuBusy::SimdCvt                     14      0.00%     12.48% # attempts to use FU when none available (Count)
system.cpu.statFuBusy::SimdMisc                     2      0.00%     12.48% # attempts to use FU when none available (Count)
system.cpu.statFuBusy::SimdMult                     0      0.00%     12.48% # attempts to use FU when none available (Count)
system.cpu.statFuBusy::SimdMultAcc                  0      0.00%     12.48% # attempts to use FU when none available (Count)
system.cpu.statFuBusy::SimdShift                    0      0.00%     12.48% # attempts to use FU when none available (Count)
system.cpu.statFuBusy::SimdShiftAcc                 0      0.00%     12.48% # attempts to use FU when none available (Count)
system.cpu.statFuBusy::SimdDiv                      0      0.00%     12.48% # attempts to use FU when none available (Count)
system.cpu.statFuBusy::SimdSqrt                     0      0.00%     12.48% # attempts to use FU when none available (Count)
system.cpu.statFuBusy::SimdFloatAdd                 0      0.00%     12.48% # attempts to use FU when none available (Count)
system.cpu.statFuBusy::SimdFloatAlu                 0      0.00%     12.48% # attempts to use FU when none available (Count)
system.cpu.statFuBusy::SimdFloatCmp                 0      0.00%     12.48% # attempts to use FU when none available (Count)
system.cpu.statFuBusy::SimdFloatCvt                 0      0.00%     12.48% # attempts to use FU when none available (Count)
system.cpu.statFuBusy::SimdFloatDiv                 0      0.00%     12.48% # attempts to use FU when none available (Count)
system.cpu.statFuBusy::SimdFloatMisc                0      0.00%     12.48% # attempts to use FU when none available (Count)
system.cpu.statFuBusy::SimdFloatMult                0      0.00%     12.48% # attempts to use FU when none available (Count)
system.cpu.statFuBusy::SimdFloatMultAcc             0      0.00%     12.48% # attempts to use FU when none available (Count)
system.cpu.statFuBusy::SimdFloatSqrt                0      0.00%     12.48% # attempts to use FU when none available (Count)
system.cpu.statFuBusy::SimdReduceAdd                0      0.00%     12.48% # attempts to use FU when none available (Count)
system.cpu.statFuBusy::SimdReduceAlu                0      0.00%     12.48% # attempts to use FU when none available (Count)
system.cpu.statFuBusy::SimdReduceCmp                0      0.00%     12.48% # attempts to use FU when none available (Count)
system.cpu.statFuBusy::SimdFloatReduceAdd            0      0.00%     12.48% # attempts to use FU when none available (Count)
system.cpu.statFuBusy::SimdFloatReduceCmp            0      0.00%     12.48% # attempts to use FU when none available (Count)
system.cpu.statFuBusy::SimdAes                      0      0.00%     12.48% # attempts to use FU when none available (Count)
system.cpu.statFuBusy::SimdAesMix                   0      0.00%     12.48% # attempts to use FU when none available (Count)
system.cpu.statFuBusy::SimdSha1Hash                 0      0.00%     12.48% # attempts to use FU when none available (Count)
system.cpu.statFuBusy::SimdSha1Hash2                0      0.00%     12.48% # attempts to use FU when none available (Count)
system.cpu.statFuBusy::SimdSha256Hash               0      0.00%     12.48% # attempts to use FU when none available (Count)
system.cpu.statFuBusy::SimdSha256Hash2              0      0.00%     12.48% # attempts to use FU when none available (Count)
system.cpu.statFuBusy::SimdShaSigma2                0      0.00%     12.48% # attempts to use FU when none available (Count)
system.cpu.statFuBusy::SimdShaSigma3                0      0.00%     12.48% # attempts to use FU when none available (Count)
system.cpu.statFuBusy::SimdPredAlu                  0      0.00%     12.48% # attempts to use FU when none available (Count)
system.cpu.statFuBusy::MemRead                  73026      0.60%     13.09% # attempts to use FU when none available (Count)
system.cpu.statFuBusy::MemWrite                869530      7.17%     20.25% # attempts to use FU when none available (Count)
system.cpu.statFuBusy::FloatMemRead             36612      0.30%     20.55% # attempts to use FU when none available (Count)
system.cpu.statFuBusy::FloatMemWrite          9639003     79.45%    100.00% # attempts to use FU when none available (Count)
system.cpu.statFuBusy::IprAccess                    0      0.00%    100.00% # attempts to use FU when none available (Count)
system.cpu.statFuBusy::InstPrefetch                 0      0.00%    100.00% # attempts to use FU when none available (Count)
system.cpu.statIssuedInstType_0::No_OpClass         6762      0.00%      0.00% # Number of instructions issued per FU type, per thread (Count)
system.cpu.statIssuedInstType_0::IntAlu     683291838     36.14%     36.14% # Number of instructions issued per FU type, per thread (Count)
system.cpu.statIssuedInstType_0::IntMult          296      0.00%     36.14% # Number of instructions issued per FU type, per thread (Count)
system.cpu.statIssuedInstType_0::IntDiv         16896      0.00%     36.14% # Number of instructions issued per FU type, per thread (Count)
system.cpu.statIssuedInstType_0::FloatAdd     58243799      3.08%     39.22% # Number of instructions issued per FU type, per thread (Count)
system.cpu.statIssuedInstType_0::FloatCmp            0      0.00%     39.22% # Number of instructions issued per FU type, per thread (Count)
system.cpu.statIssuedInstType_0::FloatCvt          962      0.00%     39.22% # Number of instructions issued per FU type, per thread (Count)
system.cpu.statIssuedInstType_0::FloatMult            0      0.00%     39.22% # Number of instructions issued per FU type, per thread (Count)
system.cpu.statIssuedInstType_0::FloatMultAcc            0      0.00%     39.22% # Number of instructions issued per FU type, per thread (Count)
system.cpu.statIssuedInstType_0::FloatDiv            0      0.00%     39.22% # Number of instructions issued per FU type, per thread (Count)
system.cpu.statIssuedInstType_0::FloatMisc            0      0.00%     39.22% # Number of instructions issued per FU type, per thread (Count)
system.cpu.statIssuedInstType_0::FloatSqrt            0      0.00%     39.22% # Number of instructions issued per FU type, per thread (Count)
system.cpu.statIssuedInstType_0::SimdAdd           14      0.00%     39.22% # Number of instructions issued per FU type, per thread (Count)
system.cpu.statIssuedInstType_0::SimdAddAcc            0      0.00%     39.22% # Number of instructions issued per FU type, per thread (Count)
system.cpu.statIssuedInstType_0::SimdAlu     12636333      0.67%     39.89% # Number of instructions issued per FU type, per thread (Count)
system.cpu.statIssuedInstType_0::SimdCmp            0      0.00%     39.89% # Number of instructions issued per FU type, per thread (Count)
system.cpu.statIssuedInstType_0::SimdCvt          399      0.00%     39.89% # Number of instructions issued per FU type, per thread (Count)
system.cpu.statIssuedInstType_0::SimdMisc      1264688      0.07%     39.96% # Number of instructions issued per FU type, per thread (Count)
system.cpu.statIssuedInstType_0::SimdMult            0      0.00%     39.96% # Number of instructions issued per FU type, per thread (Count)
system.cpu.statIssuedInstType_0::SimdMultAcc            0      0.00%     39.96% # Number of instructions issued per FU type, per thread (Count)
system.cpu.statIssuedInstType_0::SimdShift           32      0.00%     39.96% # Number of instructions issued per FU type, per thread (Count)
system.cpu.statIssuedInstType_0::SimdShiftAcc            0      0.00%     39.96% # Number of instructions issued per FU type, per thread (Count)
system.cpu.statIssuedInstType_0::SimdDiv            0      0.00%     39.96% # Number of instructions issued per FU type, per thread (Count)
system.cpu.statIssuedInstType_0::SimdSqrt            0      0.00%     39.96% # Number of instructions issued per FU type, per thread (Count)
system.cpu.statIssuedInstType_0::SimdFloatAdd     83407132      4.41%     44.37% # Number of instructions issued per FU type, per thread (Count)
system.cpu.statIssuedInstType_0::SimdFloatAlu            0      0.00%     44.37% # Number of instructions issued per FU type, per thread (Count)
system.cpu.statIssuedInstType_0::SimdFloatCmp            0      0.00%     44.37% # Number of instructions issued per FU type, per thread (Count)
system.cpu.statIssuedInstType_0::SimdFloatCvt     15163415      0.80%     45.17% # Number of instructions issued per FU type, per thread (Count)
system.cpu.statIssuedInstType_0::SimdFloatDiv     15162425      0.80%     45.97% # Number of instructions issued per FU type, per thread (Count)
system.cpu.statIssuedInstType_0::SimdFloatMisc            0      0.00%     45.97% # Number of instructions issued per FU type, per thread (Count)
system.cpu.statIssuedInstType_0::SimdFloatMult     51852368      2.74%     48.72% # Number of instructions issued per FU type, per thread (Count)
system.cpu.statIssuedInstType_0::SimdFloatMultAcc            0      0.00%     48.72% # Number of instructions issued per FU type, per thread (Count)
system.cpu.statIssuedInstType_0::SimdFloatSqrt      2527069      0.13%     48.85% # Number of instructions issued per FU type, per thread (Count)
system.cpu.statIssuedInstType_0::SimdReduceAdd            0      0.00%     48.85% # Number of instructions issued per FU type, per thread (Count)
system.cpu.statIssuedInstType_0::SimdReduceAlu            0      0.00%     48.85% # Number of instructions issued per FU type, per thread (Count)
system.cpu.statIssuedInstType_0::SimdReduceCmp            0      0.00%     48.85% # Number of instructions issued per FU type, per thread (Count)
system.cpu.statIssuedInstType_0::SimdFloatReduceAdd            0      0.00%     48.85% # Number of instructions issued per FU type, per thread (Count)
system.cpu.statIssuedInstType_0::SimdFloatReduceCmp            0      0.00%     48.85% # Number of instructions issued per FU type, per thread (Count)
system.cpu.statIssuedInstType_0::SimdAes            0      0.00%     48.85% # Number of instructions issued per FU type, per thread (Count)
system.cpu.statIssuedInstType_0::SimdAesMix            0      0.00%     48.85% # Number of instructions issued per FU type, per thread (Count)
system.cpu.statIssuedInstType_0::SimdSha1Hash            0      0.00%     48.85% # Number of instructions issued per FU type, per thread (Count)
system.cpu.statIssuedInstType_0::SimdSha1Hash2            0      0.00%     48.85% # Number of instructions issued per FU type, per thread (Count)
system.cpu.statIssuedInstType_0::SimdSha256Hash            0      0.00%     48.85% # Number of instructions issued per FU type, per thread (Count)
system.cpu.statIssuedInstType_0::SimdSha256Hash2            0      0.00%     48.85% # Number of instructions issued per FU type, per thread (Count)
system.cpu.statIssuedInstType_0::SimdShaSigma2            0      0.00%     48.85% # Number of instructions issued per FU type, per thread (Count)
system.cpu.statIssuedInstType_0::SimdShaSigma3            0      0.00%     48.85% # Number of instructions issued per FU type, per thread (Count)
system.cpu.statIssuedInstType_0::SimdPredAlu            0      0.00%     48.85% # Number of instructions issued per FU type, per thread (Count)
system.cpu.statIssuedInstType_0::MemRead     21693466      1.15%     50.00% # Number of instructions issued per FU type, per thread (Count)
system.cpu.statIssuedInstType_0::MemWrite    117215288      6.20%     56.20% # Number of instructions issued per FU type, per thread (Count)
system.cpu.statIssuedInstType_0::FloatMemRead     92683420      4.90%     61.10% # Number of instructions issued per FU type, per thread (Count)
system.cpu.statIssuedInstType_0::FloatMemWrite    735516644     38.90%    100.00% # Number of instructions issued per FU type, per thread (Count)
system.cpu.statIssuedInstType_0::IprAccess            0      0.00%    100.00% # Number of instructions issued per FU type, per thread (Count)
system.cpu.statIssuedInstType_0::InstPrefetch            0      0.00%    100.00% # Number of instructions issued per FU type, per thread (Count)
system.cpu.statIssuedInstType_0::total     1890683246                       # Number of instructions issued per FU type, per thread (Count)
system.cpu.issueRate                         0.143122                       # Inst issue rate ((Count/Cycle))
system.cpu.fuBusy                            12132896                       # FU busy when requested (Count)
system.cpu.fuBusyRate                        0.006417                       # FU busy rate (busy events/executed inst) ((Count/Count))
system.cpu.intInstQueueReads              14634263621                       # Number of integer instruction queue reads (Count)
system.cpu.intInstQueueWrites               731017210                       # Number of integer instruction queue writes (Count)
system.cpu.intInstQueueWakeupAccesses       708167692                       # Number of integer instruction queue wakeup accesses (Count)
system.cpu.fpInstQueueReads                2369282199                       # Number of floating instruction queue reads (Count)
system.cpu.fpInstQueueWrites               1222030060                       # Number of floating instruction queue writes (Count)
system.cpu.fpInstQueueWakeupAccesses       1155189753                       # Number of floating instruction queue wakeup accesses (Count)
system.cpu.vecInstQueueReads                        0                       # Number of vector instruction queue reads (Count)
system.cpu.vecInstQueueWrites                       0                       # Number of vector instruction queue writes (Count)
system.cpu.vecInstQueueWakeupAccesses               0                       # Number of vector instruction queue wakeup accesses (Count)
system.cpu.intAluAccesses                   713334276                       # Number of integer alu accesses (Count)
system.cpu.fpAluAccesses                   1189475104                       # Number of floating point alu accesses (Count)
system.cpu.vecAluAccesses                           0                       # Number of vector alu accesses (Count)
system.cpu.numInsts                        1890483779                       # Number of executed instructions (Count)
system.cpu.numLoadInsts                     114363786                       # Number of load instructions executed (Count)
system.cpu.numSquashedInsts                    199463                       # Number of squashed instructions skipped in execute (Count)
system.cpu.numSwp                                   0                       # Number of swp insts executed (Count)
system.cpu.numNop                                   0                       # Number of nop insts executed (Count)
system.cpu.numRefs                          967054803                       # Number of memory reference insts executed (Count)
system.cpu.numBranches                       59870145                       # Number of branches executed (Count)
system.cpu.numStoreInsts                    852691017                       # Number of stores executed (Count)
system.cpu.numRate                           0.143107                       # Inst execution rate ((Count/Cycle))
system.cpu.timesIdled                            2741                       # Number of times that the entire CPU went into an idle state and unscheduled itself (Count)
system.cpu.idleCycles                          268375                       # Total number of cycles that the CPU has spent unscheduled due to idling (Cycle)
system.cpu.committedInsts                  1000000001                       # Number of Instructions Simulated (Count)
system.cpu.committedOps                    1828604684                       # Number of Ops (including micro ops) Simulated (Count)
system.cpu.cpi                              13.210289                       # CPI: Cycles Per Instruction ((Cycle/Count))
system.cpu.totalCpi                         13.210289                       # CPI: Total CPI of All Threads ((Cycle/Count))
system.cpu.ipc                               0.075699                       # IPC: Instructions Per Cycle ((Count/Cycle))
system.cpu.totalIpc                          0.075699                       # IPC: Total IPC of All Threads ((Count/Cycle))
system.cpu.intRegfileReads                 1581990550                       # Number of integer regfile reads (Count)
system.cpu.intRegfileWrites                 508820981                       # Number of integer regfile writes (Count)
system.cpu.fpRegfileReads                  1471332434                       # Number of floating regfile reads (Count)
system.cpu.fpRegfileWrites                  427808547                       # Number of floating regfile writes (Count)
system.cpu.ccRegfileReads                   319555991                       # number of cc regfile reads (Count)
system.cpu.ccRegfileWrites                  247218600                       # number of cc regfile writes (Count)
system.cpu.miscRegfileReads                1123479187                       # number of misc regfile reads (Count)
system.cpu.miscRegfileWrites                      456                       # number of misc regfile writes (Count)
system.cpu.MemDepUnit__0.insertedLoads      114000534                       # Number of loads inserted to the mem dependence unit. (Count)
system.cpu.MemDepUnit__0.insertedStores     852828634                       # Number of stores inserted to the mem dependence unit. (Count)
system.cpu.MemDepUnit__0.conflictingLoads     10391656                       # Number of conflicting loads. (Count)
system.cpu.MemDepUnit__0.conflictingStores       150378                       # Number of conflicting stores. (Count)
system.cpu.MemDepUnit__1.insertedLoads              0                       # Number of loads inserted to the mem dependence unit. (Count)
system.cpu.MemDepUnit__1.insertedStores             0                       # Number of stores inserted to the mem dependence unit. (Count)
system.cpu.MemDepUnit__1.conflictingLoads            0                       # Number of conflicting loads. (Count)
system.cpu.MemDepUnit__1.conflictingStores            0                       # Number of conflicting stores. (Count)
system.cpu.MemDepUnit__2.insertedLoads              0                       # Number of loads inserted to the mem dependence unit. (Count)
system.cpu.MemDepUnit__2.insertedStores             0                       # Number of stores inserted to the mem dependence unit. (Count)
system.cpu.MemDepUnit__2.conflictingLoads            0                       # Number of conflicting loads. (Count)
system.cpu.MemDepUnit__2.conflictingStores            0                       # Number of conflicting stores. (Count)
system.cpu.MemDepUnit__3.insertedLoads              0                       # Number of loads inserted to the mem dependence unit. (Count)
system.cpu.MemDepUnit__3.insertedStores             0                       # Number of stores inserted to the mem dependence unit. (Count)
system.cpu.MemDepUnit__3.conflictingLoads            0                       # Number of conflicting loads. (Count)
system.cpu.MemDepUnit__3.conflictingStores            0                       # Number of conflicting stores. (Count)
system.cpu.branchPred.lookups                60691515                       # Number of BP lookups (Count)
system.cpu.branchPred.condPredicted          49248240                       # Number of conditional branches predicted (Count)
system.cpu.branchPred.condIncorrect            133307                       # Number of conditional branches incorrect (Count)
system.cpu.branchPred.BTBLookups             33934350                       # Number of BTB lookups (Count)
system.cpu.branchPred.BTBHits                33927234                       # Number of BTB hits (Count)
system.cpu.branchPred.BTBHitRatio            0.999790                       # BTB Hit Ratio (Ratio)
system.cpu.branchPred.RASUsed                 3808037                       # Number of times the RAS was used to get a target. (Count)
system.cpu.branchPred.RASIncorrect                 18                       # Number of incorrect RAS predictions. (Count)
system.cpu.branchPred.indirectLookups         2533455                       # Number of indirect predictor lookups. (Count)
system.cpu.branchPred.indirectHits            2528551                       # Number of indirect target hits. (Count)
system.cpu.branchPred.indirectMisses             4904                       # Number of indirect misses. (Count)
system.cpu.branchPred.indirectMispredicted         1158                       # Number of mispredicted indirect branches. (Count)
system.cpu.commit.commitSquashedInsts        60294419                       # The number of squashed insts skipped by commit (Count)
system.cpu.commit.commitNonSpecStalls             516                       # The number of times commit has been forced to stall to communicate backwards (Count)
system.cpu.commit.branchMispredicts            131848                       # The number of times a branch was mispredicted (Count)
system.cpu.commit.numCommittedDist::samples  13202054860                       # Number of insts commited each cycle (Count)
system.cpu.commit.numCommittedDist::mean     0.138509                       # Number of insts commited each cycle (Count)
system.cpu.commit.numCommittedDist::stdev     0.729720                       # Number of insts commited each cycle (Count)
system.cpu.commit.numCommittedDist::underflows            0      0.00%      0.00% # Number of insts commited each cycle (Count)
system.cpu.commit.numCommittedDist::0     12249262477     92.78%     92.78% # Number of insts commited each cycle (Count)
system.cpu.commit.numCommittedDist::1       687106255      5.20%     97.99% # Number of insts commited each cycle (Count)
system.cpu.commit.numCommittedDist::2       112648632      0.85%     98.84% # Number of insts commited each cycle (Count)
system.cpu.commit.numCommittedDist::3        26991361      0.20%     99.05% # Number of insts commited each cycle (Count)
system.cpu.commit.numCommittedDist::4        30649480      0.23%     99.28% # Number of insts commited each cycle (Count)
system.cpu.commit.numCommittedDist::5         8002524      0.06%     99.34% # Number of insts commited each cycle (Count)
system.cpu.commit.numCommittedDist::6         8496774      0.06%     99.40% # Number of insts commited each cycle (Count)
system.cpu.commit.numCommittedDist::7         9542958      0.07%     99.47% # Number of insts commited each cycle (Count)
system.cpu.commit.numCommittedDist::8        69354399      0.53%    100.00% # Number of insts commited each cycle (Count)
system.cpu.commit.numCommittedDist::overflows            0      0.00%    100.00% # Number of insts commited each cycle (Count)
system.cpu.commit.numCommittedDist::min_value            0                       # Number of insts commited each cycle (Count)
system.cpu.commit.numCommittedDist::max_value            8                       # Number of insts commited each cycle (Count)
system.cpu.commit.numCommittedDist::total  13202054860                       # Number of insts commited each cycle (Count)
system.cpu.commit.instsCommitted           1000000001                       # Number of instructions committed (Count)
system.cpu.commit.opsCommitted             1828604684                       # Number of ops (including micro ops) committed (Count)
system.cpu.commit.memRefs                   918543319                       # Number of memory references committed (Count)
system.cpu.commit.loads                     113754772                       # Number of loads committed (Count)
system.cpu.commit.amos                              0                       # Number of atomic instructions committed (Count)
system.cpu.commit.membars                          40                       # Number of memory barriers committed (Count)
system.cpu.commit.branches                   59374689                       # Number of branches committed (Count)
system.cpu.commit.vectorInstructions                0                       # Number of committed Vector instructions. (Count)
system.cpu.commit.floating                 1137987309                       # Number of committed floating point instructions. (Count)
system.cpu.commit.integer                  1478379785                       # Number of committed integer instructions. (Count)
system.cpu.commit.functionCalls               3799503                       # Number of function calls committed. (Count)
system.cpu.commit.committedInstType_0::No_OpClass         2893      0.00%      0.00% # Class of committed instruction (Count)
system.cpu.commit.committedInstType_0::IntAlu    669851585     36.63%     36.63% # Class of committed instruction (Count)
system.cpu.commit.committedInstType_0::IntMult          214      0.00%     36.63% # Class of committed instruction (Count)
system.cpu.commit.committedInstType_0::IntDiv        15025      0.00%     36.63% # Class of committed instruction (Count)
system.cpu.commit.committedInstType_0::FloatAdd     58181637      3.18%     39.81% # Class of committed instruction (Count)
system.cpu.commit.committedInstType_0::FloatCmp            0      0.00%     39.81% # Class of committed instruction (Count)
system.cpu.commit.committedInstType_0::FloatCvt          768      0.00%     39.81% # Class of committed instruction (Count)
system.cpu.commit.committedInstType_0::FloatMult            0      0.00%     39.81% # Class of committed instruction (Count)
system.cpu.commit.committedInstType_0::FloatMultAcc            0      0.00%     39.81% # Class of committed instruction (Count)
system.cpu.commit.committedInstType_0::FloatDiv            0      0.00%     39.81% # Class of committed instruction (Count)
system.cpu.commit.committedInstType_0::FloatMisc            0      0.00%     39.81% # Class of committed instruction (Count)
system.cpu.commit.committedInstType_0::FloatSqrt            0      0.00%     39.81% # Class of committed instruction (Count)
system.cpu.commit.committedInstType_0::SimdAdd           14      0.00%     39.81% # Class of committed instruction (Count)
system.cpu.commit.committedInstType_0::SimdAddAcc            0      0.00%     39.81% # Class of committed instruction (Count)
system.cpu.commit.committedInstType_0::SimdAlu     12635744      0.69%     40.51% # Class of committed instruction (Count)
system.cpu.commit.committedInstType_0::SimdCmp            0      0.00%     40.51% # Class of committed instruction (Count)
system.cpu.commit.committedInstType_0::SimdCvt          298      0.00%     40.51% # Class of committed instruction (Count)
system.cpu.commit.committedInstType_0::SimdMisc      1264573      0.07%     40.57% # Class of committed instruction (Count)
system.cpu.commit.committedInstType_0::SimdMult            0      0.00%     40.57% # Class of committed instruction (Count)
system.cpu.commit.committedInstType_0::SimdMultAcc            0      0.00%     40.57% # Class of committed instruction (Count)
system.cpu.commit.committedInstType_0::SimdShift           14      0.00%     40.57% # Class of committed instruction (Count)
system.cpu.commit.committedInstType_0::SimdShiftAcc            0      0.00%     40.57% # Class of committed instruction (Count)
system.cpu.commit.committedInstType_0::SimdDiv            0      0.00%     40.57% # Class of committed instruction (Count)
system.cpu.commit.committedInstType_0::SimdSqrt            0      0.00%     40.57% # Class of committed instruction (Count)
system.cpu.commit.committedInstType_0::SimdFloatAdd     83404970      4.56%     45.14% # Class of committed instruction (Count)
system.cpu.commit.committedInstType_0::SimdFloatAlu            0      0.00%     45.14% # Class of committed instruction (Count)
system.cpu.commit.committedInstType_0::SimdFloatCmp            0      0.00%     45.14% # Class of committed instruction (Count)
system.cpu.commit.committedInstType_0::SimdFloatCvt     15162435      0.83%     45.97% # Class of committed instruction (Count)
system.cpu.commit.committedInstType_0::SimdFloatDiv     15162416      0.83%     46.79% # Class of committed instruction (Count)
system.cpu.commit.committedInstType_0::SimdFloatMisc            0      0.00%     46.79% # Class of committed instruction (Count)
system.cpu.commit.committedInstType_0::SimdFloatMult     51851710      2.84%     49.63% # Class of committed instruction (Count)
system.cpu.commit.committedInstType_0::SimdFloatMultAcc            0      0.00%     49.63% # Class of committed instruction (Count)
system.cpu.commit.committedInstType_0::SimdFloatSqrt      2527069      0.14%     49.77% # Class of committed instruction (Count)
system.cpu.commit.committedInstType_0::SimdReduceAdd            0      0.00%     49.77% # Class of committed instruction (Count)
system.cpu.commit.committedInstType_0::SimdReduceAlu            0      0.00%     49.77% # Class of committed instruction (Count)
system.cpu.commit.committedInstType_0::SimdReduceCmp            0      0.00%     49.77% # Class of committed instruction (Count)
system.cpu.commit.committedInstType_0::SimdFloatReduceAdd            0      0.00%     49.77% # Class of committed instruction (Count)
system.cpu.commit.committedInstType_0::SimdFloatReduceCmp            0      0.00%     49.77% # Class of committed instruction (Count)
system.cpu.commit.committedInstType_0::SimdAes            0      0.00%     49.77% # Class of committed instruction (Count)
system.cpu.commit.committedInstType_0::SimdAesMix            0      0.00%     49.77% # Class of committed instruction (Count)
system.cpu.commit.committedInstType_0::SimdSha1Hash            0      0.00%     49.77% # Class of committed instruction (Count)
system.cpu.commit.committedInstType_0::SimdSha1Hash2            0      0.00%     49.77% # Class of committed instruction (Count)
system.cpu.commit.committedInstType_0::SimdSha256Hash            0      0.00%     49.77% # Class of committed instruction (Count)
system.cpu.commit.committedInstType_0::SimdSha256Hash2            0      0.00%     49.77% # Class of committed instruction (Count)
system.cpu.commit.committedInstType_0::SimdShaSigma2            0      0.00%     49.77% # Class of committed instruction (Count)
system.cpu.commit.committedInstType_0::SimdShaSigma3            0      0.00%     49.77% # Class of committed instruction (Count)
system.cpu.commit.committedInstType_0::SimdPredAlu            0      0.00%     49.77% # Class of committed instruction (Count)
system.cpu.commit.committedInstType_0::MemRead     21150033      1.16%     50.92% # Class of committed instruction (Count)
system.cpu.commit.committedInstType_0::MemWrite    110882501      6.06%     56.99% # Class of committed instruction (Count)
system.cpu.commit.committedInstType_0::FloatMemRead     92604739      5.06%     62.05% # Class of committed instruction (Count)
system.cpu.commit.committedInstType_0::FloatMemWrite    693906046     37.95%    100.00% # Class of committed instruction (Count)
system.cpu.commit.committedInstType_0::IprAccess            0      0.00%    100.00% # Class of committed instruction (Count)
system.cpu.commit.committedInstType_0::InstPrefetch            0      0.00%    100.00% # Class of committed instruction (Count)
system.cpu.commit.committedInstType_0::total   1828604684                       # Class of committed instruction (Count)
system.cpu.commit.commitEligibleSamples      69354399                       # number cycles where commit BW limit reached (Cycle)
system.cpu.dcache.demandHits::cpu.data      802210077                       # number of demand (read+write) hits (Count)
system.cpu.dcache.demandHits::total         802210077                       # number of demand (read+write) hits (Count)
system.cpu.dcache.overallHits::cpu.data     802210077                       # number of overall hits (Count)
system.cpu.dcache.overallHits::total        802210077                       # number of overall hits (Count)
system.cpu.dcache.demandMisses::cpu.data     99147853                       # number of demand (read+write) misses (Count)
system.cpu.dcache.demandMisses::total        99147853                       # number of demand (read+write) misses (Count)
system.cpu.dcache.overallMisses::cpu.data     99147853                       # number of overall misses (Count)
system.cpu.dcache.overallMisses::total       99147853                       # number of overall misses (Count)
system.cpu.dcache.demandMissLatency::cpu.data 5943575690218                       # number of demand (read+write) miss ticks (Tick)
system.cpu.dcache.demandMissLatency::total 5943575690218                       # number of demand (read+write) miss ticks (Tick)
system.cpu.dcache.overallMissLatency::cpu.data 5943575690218                       # number of overall miss ticks (Tick)
system.cpu.dcache.overallMissLatency::total 5943575690218                       # number of overall miss ticks (Tick)
system.cpu.dcache.demandAccesses::cpu.data    901357930                       # number of demand (read+write) accesses (Count)
system.cpu.dcache.demandAccesses::total     901357930                       # number of demand (read+write) accesses (Count)
system.cpu.dcache.overallAccesses::cpu.data    901357930                       # number of overall (read+write) accesses (Count)
system.cpu.dcache.overallAccesses::total    901357930                       # number of overall (read+write) accesses (Count)
system.cpu.dcache.demandMissRate::cpu.data     0.109998                       # miss rate for demand accesses (Ratio)
system.cpu.dcache.demandMissRate::total      0.109998                       # miss rate for demand accesses (Ratio)
system.cpu.dcache.overallMissRate::cpu.data     0.109998                       # miss rate for overall accesses (Ratio)
system.cpu.dcache.overallMissRate::total     0.109998                       # miss rate for overall accesses (Ratio)
system.cpu.dcache.demandAvgMissLatency::cpu.data 59946.589970                       # average overall miss latency in ticks ((Tick/Count))
system.cpu.dcache.demandAvgMissLatency::total 59946.589970                       # average overall miss latency in ticks ((Tick/Count))
system.cpu.dcache.overallAvgMissLatency::cpu.data 59946.589970                       # average overall miss latency ((Tick/Count))
system.cpu.dcache.overallAvgMissLatency::total 59946.589970                       # average overall miss latency ((Tick/Count))
system.cpu.dcache.blockedCycles::no_mshrs      5167282                       # number of cycles access was blocked (Cycle)
system.cpu.dcache.blockedCycles::no_targets          542                       # number of cycles access was blocked (Cycle)
system.cpu.dcache.blockedCauses::no_mshrs        68054                       # number of times access was blocked (Count)
system.cpu.dcache.blockedCauses::no_targets            7                       # number of times access was blocked (Count)
system.cpu.dcache.avgBlocked::no_mshrs      75.929145                       # average number of cycles each access was blocked ((Cycle/Count))
system.cpu.dcache.avgBlocked::no_targets    77.428571                       # average number of cycles each access was blocked ((Cycle/Count))
system.cpu.dcache.writebacks::writebacks     96210025                       # number of writebacks (Count)
system.cpu.dcache.writebacks::total          96210025                       # number of writebacks (Count)
system.cpu.dcache.demandMshrHits::cpu.data      1972988                       # number of demand (read+write) MSHR hits (Count)
system.cpu.dcache.demandMshrHits::total       1972988                       # number of demand (read+write) MSHR hits (Count)
system.cpu.dcache.overallMshrHits::cpu.data      1972988                       # number of overall MSHR hits (Count)
system.cpu.dcache.overallMshrHits::total      1972988                       # number of overall MSHR hits (Count)
system.cpu.dcache.demandMshrMisses::cpu.data     97174865                       # number of demand (read+write) MSHR misses (Count)
system.cpu.dcache.demandMshrMisses::total     97174865                       # number of demand (read+write) MSHR misses (Count)
system.cpu.dcache.overallMshrMisses::cpu.data     97174865                       # number of overall MSHR misses (Count)
system.cpu.dcache.overallMshrMisses::total     97174865                       # number of overall MSHR misses (Count)
system.cpu.dcache.demandMshrMissLatency::cpu.data 5731327808718                       # number of demand (read+write) MSHR miss ticks (Tick)
system.cpu.dcache.demandMshrMissLatency::total 5731327808718                       # number of demand (read+write) MSHR miss ticks (Tick)
system.cpu.dcache.overallMshrMissLatency::cpu.data 5731327808718                       # number of overall MSHR miss ticks (Tick)
system.cpu.dcache.overallMshrMissLatency::total 5731327808718                       # number of overall MSHR miss ticks (Tick)
system.cpu.dcache.demandMshrMissRate::cpu.data     0.107809                       # mshr miss ratio for demand accesses (Ratio)
system.cpu.dcache.demandMshrMissRate::total     0.107809                       # mshr miss ratio for demand accesses (Ratio)
system.cpu.dcache.overallMshrMissRate::cpu.data     0.107809                       # mshr miss ratio for overall accesses (Ratio)
system.cpu.dcache.overallMshrMissRate::total     0.107809                       # mshr miss ratio for overall accesses (Ratio)
system.cpu.dcache.demandAvgMshrMissLatency::cpu.data 58979.529416                       # average overall mshr miss latency ((Tick/Count))
system.cpu.dcache.demandAvgMshrMissLatency::total 58979.529416                       # average overall mshr miss latency ((Tick/Count))
system.cpu.dcache.overallAvgMshrMissLatency::cpu.data 58979.529416                       # average overall mshr miss latency ((Tick/Count))
system.cpu.dcache.overallAvgMshrMissLatency::total 58979.529416                       # average overall mshr miss latency ((Tick/Count))
system.cpu.dcache.replacements               97174351                       # number of replacements (Count)
system.cpu.dcache.LockedRMWReadReq.hits::cpu.data           20                       # number of LockedRMWReadReq hits (Count)
system.cpu.dcache.LockedRMWReadReq.hits::total           20                       # number of LockedRMWReadReq hits (Count)
system.cpu.dcache.LockedRMWReadReq.accesses::cpu.data           20                       # number of LockedRMWReadReq accesses(hits+misses) (Count)
system.cpu.dcache.LockedRMWReadReq.accesses::total           20                       # number of LockedRMWReadReq accesses(hits+misses) (Count)
system.cpu.dcache.LockedRMWReadReq.mshrMissLatency::cpu.data        60000                       # number of LockedRMWReadReq MSHR miss ticks (Tick)
system.cpu.dcache.LockedRMWReadReq.mshrMissLatency::total        60000                       # number of LockedRMWReadReq MSHR miss ticks (Tick)
system.cpu.dcache.LockedRMWReadReq.avgMshrMissLatency::cpu.data          inf                       # average LockedRMWReadReq mshr miss latency ((Tick/Count))
system.cpu.dcache.LockedRMWReadReq.avgMshrMissLatency::total          inf                       # average LockedRMWReadReq mshr miss latency ((Tick/Count))
system.cpu.dcache.LockedRMWWriteReq.hits::cpu.data           20                       # number of LockedRMWWriteReq hits (Count)
system.cpu.dcache.LockedRMWWriteReq.hits::total           20                       # number of LockedRMWWriteReq hits (Count)
system.cpu.dcache.LockedRMWWriteReq.accesses::cpu.data           20                       # number of LockedRMWWriteReq accesses(hits+misses) (Count)
system.cpu.dcache.LockedRMWWriteReq.accesses::total           20                       # number of LockedRMWWriteReq accesses(hits+misses) (Count)
system.cpu.dcache.ReadReq.hits::cpu.data     93630713                       # number of ReadReq hits (Count)
system.cpu.dcache.ReadReq.hits::total        93630713                       # number of ReadReq hits (Count)
system.cpu.dcache.ReadReq.misses::cpu.data      2938668                       # number of ReadReq misses (Count)
system.cpu.dcache.ReadReq.misses::total       2938668                       # number of ReadReq misses (Count)
system.cpu.dcache.ReadReq.missLatency::cpu.data 173421041000                       # number of ReadReq miss ticks (Tick)
system.cpu.dcache.ReadReq.missLatency::total 173421041000                       # number of ReadReq miss ticks (Tick)
system.cpu.dcache.ReadReq.accesses::cpu.data     96569381                       # number of ReadReq accesses(hits+misses) (Count)
system.cpu.dcache.ReadReq.accesses::total     96569381                       # number of ReadReq accesses(hits+misses) (Count)
system.cpu.dcache.ReadReq.missRate::cpu.data     0.030431                       # miss rate for ReadReq accesses (Ratio)
system.cpu.dcache.ReadReq.missRate::total     0.030431                       # miss rate for ReadReq accesses (Ratio)
system.cpu.dcache.ReadReq.avgMissLatency::cpu.data 59013.485361                       # average ReadReq miss latency ((Tick/Count))
system.cpu.dcache.ReadReq.avgMissLatency::total 59013.485361                       # average ReadReq miss latency ((Tick/Count))
system.cpu.dcache.ReadReq.mshrHits::cpu.data      1972974                       # number of ReadReq MSHR hits (Count)
system.cpu.dcache.ReadReq.mshrHits::total      1972974                       # number of ReadReq MSHR hits (Count)
system.cpu.dcache.ReadReq.mshrMisses::cpu.data       965694                       # number of ReadReq MSHR misses (Count)
system.cpu.dcache.ReadReq.mshrMisses::total       965694                       # number of ReadReq MSHR misses (Count)
system.cpu.dcache.ReadReq.mshrMissLatency::cpu.data  57382990000                       # number of ReadReq MSHR miss ticks (Tick)
system.cpu.dcache.ReadReq.mshrMissLatency::total  57382990000                       # number of ReadReq MSHR miss ticks (Tick)
system.cpu.dcache.ReadReq.mshrMissRate::cpu.data     0.010000                       # mshr miss rate for ReadReq accesses (Ratio)
system.cpu.dcache.ReadReq.mshrMissRate::total     0.010000                       # mshr miss rate for ReadReq accesses (Ratio)
system.cpu.dcache.ReadReq.avgMshrMissLatency::cpu.data 59421.504120                       # average ReadReq mshr miss latency ((Tick/Count))
system.cpu.dcache.ReadReq.avgMshrMissLatency::total 59421.504120                       # average ReadReq mshr miss latency ((Tick/Count))
system.cpu.dcache.WriteReq.hits::cpu.data    708579364                       # number of WriteReq hits (Count)
system.cpu.dcache.WriteReq.hits::total      708579364                       # number of WriteReq hits (Count)
system.cpu.dcache.WriteReq.misses::cpu.data     96209185                       # number of WriteReq misses (Count)
system.cpu.dcache.WriteReq.misses::total     96209185                       # number of WriteReq misses (Count)
system.cpu.dcache.WriteReq.missLatency::cpu.data 5770154649218                       # number of WriteReq miss ticks (Tick)
system.cpu.dcache.WriteReq.missLatency::total 5770154649218                       # number of WriteReq miss ticks (Tick)
system.cpu.dcache.WriteReq.accesses::cpu.data    804788549                       # number of WriteReq accesses(hits+misses) (Count)
system.cpu.dcache.WriteReq.accesses::total    804788549                       # number of WriteReq accesses(hits+misses) (Count)
system.cpu.dcache.WriteReq.missRate::cpu.data     0.119546                       # miss rate for WriteReq accesses (Ratio)
system.cpu.dcache.WriteReq.missRate::total     0.119546                       # miss rate for WriteReq accesses (Ratio)
system.cpu.dcache.WriteReq.avgMissLatency::cpu.data 59975.091247                       # average WriteReq miss latency ((Tick/Count))
system.cpu.dcache.WriteReq.avgMissLatency::total 59975.091247                       # average WriteReq miss latency ((Tick/Count))
system.cpu.dcache.WriteReq.mshrHits::cpu.data           14                       # number of WriteReq MSHR hits (Count)
system.cpu.dcache.WriteReq.mshrHits::total           14                       # number of WriteReq MSHR hits (Count)
system.cpu.dcache.WriteReq.mshrMisses::cpu.data     96209171                       # number of WriteReq MSHR misses (Count)
system.cpu.dcache.WriteReq.mshrMisses::total     96209171                       # number of WriteReq MSHR misses (Count)
system.cpu.dcache.WriteReq.mshrMissLatency::cpu.data 5673944818718                       # number of WriteReq MSHR miss ticks (Tick)
system.cpu.dcache.WriteReq.mshrMissLatency::total 5673944818718                       # number of WriteReq MSHR miss ticks (Tick)
system.cpu.dcache.WriteReq.mshrMissRate::cpu.data     0.119546                       # mshr miss rate for WriteReq accesses (Ratio)
system.cpu.dcache.WriteReq.mshrMissRate::total     0.119546                       # mshr miss rate for WriteReq accesses (Ratio)
system.cpu.dcache.WriteReq.avgMshrMissLatency::cpu.data 58975.093120                       # average WriteReq mshr miss latency ((Tick/Count))
system.cpu.dcache.WriteReq.avgMshrMissLatency::total 58975.093120                       # average WriteReq mshr miss latency ((Tick/Count))
system.cpu.dcache.power_state.pwrStateResidencyTicks::UNDEFINED 6605144374000                       # Cumulative time (in ticks) in various power states (Tick)
system.cpu.dcache.tags.tagsInUse           511.997863                       # Average ticks per tags in use ((Tick/Count))
system.cpu.dcache.tags.totalRefs            899384982                       # Total number of references to valid blocks. (Count)
system.cpu.dcache.tags.sampledRefs           97174863                       # Sample count of references to valid blocks. (Count)
system.cpu.dcache.tags.avgRefs               9.255325                       # Average number of references to valid blocks. ((Count/Count))
system.cpu.dcache.tags.warmupTick              148000                       # The tick when the warmup percentage was hit. (Tick)
system.cpu.dcache.tags.occupancies::cpu.data   511.997863                       # Average occupied blocks per tick, per requestor ((Count/Tick))
system.cpu.dcache.tags.avgOccs::cpu.data     0.999996                       # Average percentage of cache occupancy ((Ratio/Tick))
system.cpu.dcache.tags.avgOccs::total        0.999996                       # Average percentage of cache occupancy ((Ratio/Tick))
system.cpu.dcache.tags.occupanciesTaskId::1024          512                       # Occupied blocks per task id (Count)
system.cpu.dcache.tags.ageTaskId_1024::0           56                       # Occupied blocks per task id, per block age (Count)
system.cpu.dcache.tags.ageTaskId_1024::1          428                       # Occupied blocks per task id, per block age (Count)
system.cpu.dcache.tags.ageTaskId_1024::4           28                       # Occupied blocks per task id, per block age (Count)
system.cpu.dcache.tags.ratioOccsTaskId::1024            1                       # Ratio of occupied blocks and all blocks, per task id (Ratio)
system.cpu.dcache.tags.tagAccesses         7308038623                       # Number of tag accesses (Count)
system.cpu.dcache.tags.dataAccesses        7308038623                       # Number of data accesses (Count)
system.cpu.dcache.tags.power_state.pwrStateResidencyTicks::UNDEFINED 6605144374000                       # Cumulative time (in ticks) in various power states (Tick)
system.cpu.decode.idleCycles                 96305432                       # Number of cycles decode is idle (Cycle)
system.cpu.decode.blockedCycles           12849853431                       # Number of cycles decode is blocked (Cycle)
system.cpu.decode.runCycles                 120565992                       # Number of cycles decode is running (Cycle)
system.cpu.decode.unblockCycles             141668908                       # Number of cycles decode is unblocking (Cycle)
system.cpu.decode.squashCycles                1626611                       # Number of cycles decode is squashing (Cycle)
system.cpu.decode.branchResolved             33265262                       # Number of times decode resolved a branch (Count)
system.cpu.decode.branchMispred                  2291                       # Number of times decode detected a branch misprediction (Count)
system.cpu.decode.decodedInsts             1905006034                       # Number of instructions handled by decode (Count)
system.cpu.decode.squashedInsts                  9549                       # Number of squashed instructions handled by decode (Count)
system.cpu.dtb_walker_cache.blockedCycles::no_mshrs            0                       # number of cycles access was blocked (Cycle)
system.cpu.dtb_walker_cache.blockedCycles::no_targets            0                       # number of cycles access was blocked (Cycle)
system.cpu.dtb_walker_cache.blockedCauses::no_mshrs            0                       # number of times access was blocked (Count)
system.cpu.dtb_walker_cache.blockedCauses::no_targets            0                       # number of times access was blocked (Count)
system.cpu.dtb_walker_cache.avgBlocked::no_mshrs          nan                       # average number of cycles each access was blocked ((Cycle/Count))
system.cpu.dtb_walker_cache.avgBlocked::no_targets          nan                       # average number of cycles each access was blocked ((Cycle/Count))
system.cpu.dtb_walker_cache.replacements            0                       # number of replacements (Count)
system.cpu.dtb_walker_cache.power_state.pwrStateResidencyTicks::UNDEFINED 6605144374000                       # Cumulative time (in ticks) in various power states (Tick)
system.cpu.dtb_walker_cache.tags.tagsInUse            0                       # Average ticks per tags in use ((Tick/Count))
system.cpu.dtb_walker_cache.tags.totalRefs            0                       # Total number of references to valid blocks. (Count)
system.cpu.dtb_walker_cache.tags.sampledRefs            0                       # Sample count of references to valid blocks. (Count)
system.cpu.dtb_walker_cache.tags.avgRefs          nan                       # Average number of references to valid blocks. ((Count/Count))
system.cpu.dtb_walker_cache.tags.warmupTick            0                       # The tick when the warmup percentage was hit. (Tick)
system.cpu.dtb_walker_cache.tags.tagAccesses            0                       # Number of tag accesses (Count)
system.cpu.dtb_walker_cache.tags.dataAccesses            0                       # Number of data accesses (Count)
system.cpu.dtb_walker_cache.tags.power_state.pwrStateResidencyTicks::UNDEFINED 6605144374000                       # Cumulative time (in ticks) in various power states (Tick)
system.cpu.fetch.icacheStallCycles          139798088                       # Number of cycles fetch is stalled on an Icache miss (Cycle)
system.cpu.fetch.insts                     1073860112                       # Number of instructions fetch has processed (Count)
system.cpu.fetch.branches                    60691515                       # Number of branches that fetch encountered (Count)
system.cpu.fetch.predictedBranches           40263822                       # Number of branches that fetch has predicted taken (Count)
system.cpu.fetch.cycles                   13068586404                       # Number of cycles fetch has run and was not squashing or blocked (Cycle)
system.cpu.fetch.squashCycles                 3257694                       # Number of cycles fetch has spent squashing (Cycle)
system.cpu.fetch.miscStallCycles                  892                       # Number of cycles fetch has spent waiting on interrupts, or bad addresses, or out of MSHRs (Cycle)
system.cpu.fetch.pendingTrapStallCycles          6129                       # Number of stall cycles due to pending traps (Cycle)
system.cpu.fetch.icacheWaitRetryStallCycles           14                       # Number of stall cycles due to full MSHR (Cycle)
system.cpu.fetch.cacheLines                 138169839                       # Number of cache lines fetched (Count)
system.cpu.fetch.icacheSquashes                 34177                       # Number of outstanding Icache misses that were squashed (Count)
system.cpu.fetch.nisnDist::samples        13210020374                       # Number of instructions fetched each cycle (Total) (Count)
system.cpu.fetch.nisnDist::mean              0.149310                       # Number of instructions fetched each cycle (Total) (Count)
system.cpu.fetch.nisnDist::stdev             1.005451                       # Number of instructions fetched each cycle (Total) (Count)
system.cpu.fetch.nisnDist::underflows               0      0.00%      0.00% # Number of instructions fetched each cycle (Total) (Count)
system.cpu.fetch.nisnDist::0              12874651081     97.46%     97.46% # Number of instructions fetched each cycle (Total) (Count)
system.cpu.fetch.nisnDist::1                 20452383      0.15%     97.62% # Number of instructions fetched each cycle (Total) (Count)
system.cpu.fetch.nisnDist::2                 31432621      0.24%     97.85% # Number of instructions fetched each cycle (Total) (Count)
system.cpu.fetch.nisnDist::3                 25550608      0.19%     98.05% # Number of instructions fetched each cycle (Total) (Count)
system.cpu.fetch.nisnDist::4                 28407349      0.22%     98.26% # Number of instructions fetched each cycle (Total) (Count)
system.cpu.fetch.nisnDist::5                 23694556      0.18%     98.44% # Number of instructions fetched each cycle (Total) (Count)
system.cpu.fetch.nisnDist::6                 23838465      0.18%     98.62% # Number of instructions fetched each cycle (Total) (Count)
system.cpu.fetch.nisnDist::7                 18657512      0.14%     98.76% # Number of instructions fetched each cycle (Total) (Count)
system.cpu.fetch.nisnDist::8                163335799      1.24%    100.00% # Number of instructions fetched each cycle (Total) (Count)
system.cpu.fetch.nisnDist::overflows                0      0.00%    100.00% # Number of instructions fetched each cycle (Total) (Count)
system.cpu.fetch.nisnDist::min_value                0                       # Number of instructions fetched each cycle (Total) (Count)
system.cpu.fetch.nisnDist::max_value                8                       # Number of instructions fetched each cycle (Total) (Count)
system.cpu.fetch.nisnDist::total          13210020374                       # Number of instructions fetched each cycle (Total) (Count)
system.cpu.fetch.branchRate                  0.004594                       # Number of branch fetches per cycle (Ratio)
system.cpu.fetch.rate                        0.081290                       # Number of inst fetches per cycle ((Count/Cycle))
system.cpu.icache.demandHits::cpu.inst      138164859                       # number of demand (read+write) hits (Count)
system.cpu.icache.demandHits::total         138164859                       # number of demand (read+write) hits (Count)
system.cpu.icache.overallHits::cpu.inst     138164859                       # number of overall hits (Count)
system.cpu.icache.overallHits::total        138164859                       # number of overall hits (Count)
system.cpu.icache.demandMisses::cpu.inst         4979                       # number of demand (read+write) misses (Count)
system.cpu.icache.demandMisses::total            4979                       # number of demand (read+write) misses (Count)
system.cpu.icache.overallMisses::cpu.inst         4979                       # number of overall misses (Count)
system.cpu.icache.overallMisses::total           4979                       # number of overall misses (Count)
system.cpu.icache.demandMissLatency::cpu.inst    311827500                       # number of demand (read+write) miss ticks (Tick)
system.cpu.icache.demandMissLatency::total    311827500                       # number of demand (read+write) miss ticks (Tick)
system.cpu.icache.overallMissLatency::cpu.inst    311827500                       # number of overall miss ticks (Tick)
system.cpu.icache.overallMissLatency::total    311827500                       # number of overall miss ticks (Tick)
system.cpu.icache.demandAccesses::cpu.inst    138169838                       # number of demand (read+write) accesses (Count)
system.cpu.icache.demandAccesses::total     138169838                       # number of demand (read+write) accesses (Count)
system.cpu.icache.overallAccesses::cpu.inst    138169838                       # number of overall (read+write) accesses (Count)
system.cpu.icache.overallAccesses::total    138169838                       # number of overall (read+write) accesses (Count)
system.cpu.icache.demandMissRate::cpu.inst     0.000036                       # miss rate for demand accesses (Ratio)
system.cpu.icache.demandMissRate::total      0.000036                       # miss rate for demand accesses (Ratio)
system.cpu.icache.overallMissRate::cpu.inst     0.000036                       # miss rate for overall accesses (Ratio)
system.cpu.icache.overallMissRate::total     0.000036                       # miss rate for overall accesses (Ratio)
system.cpu.icache.demandAvgMissLatency::cpu.inst 62628.539867                       # average overall miss latency in ticks ((Tick/Count))
system.cpu.icache.demandAvgMissLatency::total 62628.539867                       # average overall miss latency in ticks ((Tick/Count))
system.cpu.icache.overallAvgMissLatency::cpu.inst 62628.539867                       # average overall miss latency ((Tick/Count))
system.cpu.icache.overallAvgMissLatency::total 62628.539867                       # average overall miss latency ((Tick/Count))
system.cpu.icache.blockedCycles::no_mshrs          662                       # number of cycles access was blocked (Cycle)
system.cpu.icache.blockedCycles::no_targets            0                       # number of cycles access was blocked (Cycle)
system.cpu.icache.blockedCauses::no_mshrs           11                       # number of times access was blocked (Count)
system.cpu.icache.blockedCauses::no_targets            0                       # number of times access was blocked (Count)
system.cpu.icache.avgBlocked::no_mshrs      60.181818                       # average number of cycles each access was blocked ((Cycle/Count))
system.cpu.icache.avgBlocked::no_targets          nan                       # average number of cycles each access was blocked ((Cycle/Count))
system.cpu.icache.writebacks::writebacks         3466                       # number of writebacks (Count)
system.cpu.icache.writebacks::total              3466                       # number of writebacks (Count)
system.cpu.icache.demandMshrHits::cpu.inst          999                       # number of demand (read+write) MSHR hits (Count)
system.cpu.icache.demandMshrHits::total           999                       # number of demand (read+write) MSHR hits (Count)
system.cpu.icache.overallMshrHits::cpu.inst          999                       # number of overall MSHR hits (Count)
system.cpu.icache.overallMshrHits::total          999                       # number of overall MSHR hits (Count)
system.cpu.icache.demandMshrMisses::cpu.inst         3980                       # number of demand (read+write) MSHR misses (Count)
system.cpu.icache.demandMshrMisses::total         3980                       # number of demand (read+write) MSHR misses (Count)
system.cpu.icache.overallMshrMisses::cpu.inst         3980                       # number of overall MSHR misses (Count)
system.cpu.icache.overallMshrMisses::total         3980                       # number of overall MSHR misses (Count)
system.cpu.icache.demandMshrMissLatency::cpu.inst    260218500                       # number of demand (read+write) MSHR miss ticks (Tick)
system.cpu.icache.demandMshrMissLatency::total    260218500                       # number of demand (read+write) MSHR miss ticks (Tick)
system.cpu.icache.overallMshrMissLatency::cpu.inst    260218500                       # number of overall MSHR miss ticks (Tick)
system.cpu.icache.overallMshrMissLatency::total    260218500                       # number of overall MSHR miss ticks (Tick)
system.cpu.icache.demandMshrMissRate::cpu.inst     0.000029                       # mshr miss ratio for demand accesses (Ratio)
system.cpu.icache.demandMshrMissRate::total     0.000029                       # mshr miss ratio for demand accesses (Ratio)
system.cpu.icache.overallMshrMissRate::cpu.inst     0.000029                       # mshr miss ratio for overall accesses (Ratio)
system.cpu.icache.overallMshrMissRate::total     0.000029                       # mshr miss ratio for overall accesses (Ratio)
system.cpu.icache.demandAvgMshrMissLatency::cpu.inst 65381.532663                       # average overall mshr miss latency ((Tick/Count))
system.cpu.icache.demandAvgMshrMissLatency::total 65381.532663                       # average overall mshr miss latency ((Tick/Count))
system.cpu.icache.overallAvgMshrMissLatency::cpu.inst 65381.532663                       # average overall mshr miss latency ((Tick/Count))
system.cpu.icache.overallAvgMshrMissLatency::total 65381.532663                       # average overall mshr miss latency ((Tick/Count))
system.cpu.icache.replacements                   3466                       # number of replacements (Count)
system.cpu.icache.ReadReq.hits::cpu.inst    138164859                       # number of ReadReq hits (Count)
system.cpu.icache.ReadReq.hits::total       138164859                       # number of ReadReq hits (Count)
system.cpu.icache.ReadReq.misses::cpu.inst         4979                       # number of ReadReq misses (Count)
system.cpu.icache.ReadReq.misses::total          4979                       # number of ReadReq misses (Count)
system.cpu.icache.ReadReq.missLatency::cpu.inst    311827500                       # number of ReadReq miss ticks (Tick)
system.cpu.icache.ReadReq.missLatency::total    311827500                       # number of ReadReq miss ticks (Tick)
system.cpu.icache.ReadReq.accesses::cpu.inst    138169838                       # number of ReadReq accesses(hits+misses) (Count)
system.cpu.icache.ReadReq.accesses::total    138169838                       # number of ReadReq accesses(hits+misses) (Count)
system.cpu.icache.ReadReq.missRate::cpu.inst     0.000036                       # miss rate for ReadReq accesses (Ratio)
system.cpu.icache.ReadReq.missRate::total     0.000036                       # miss rate for ReadReq accesses (Ratio)
system.cpu.icache.ReadReq.avgMissLatency::cpu.inst 62628.539867                       # average ReadReq miss latency ((Tick/Count))
system.cpu.icache.ReadReq.avgMissLatency::total 62628.539867                       # average ReadReq miss latency ((Tick/Count))
system.cpu.icache.ReadReq.mshrHits::cpu.inst          999                       # number of ReadReq MSHR hits (Count)
system.cpu.icache.ReadReq.mshrHits::total          999                       # number of ReadReq MSHR hits (Count)
system.cpu.icache.ReadReq.mshrMisses::cpu.inst         3980                       # number of ReadReq MSHR misses (Count)
system.cpu.icache.ReadReq.mshrMisses::total         3980                       # number of ReadReq MSHR misses (Count)
system.cpu.icache.ReadReq.mshrMissLatency::cpu.inst    260218500                       # number of ReadReq MSHR miss ticks (Tick)
system.cpu.icache.ReadReq.mshrMissLatency::total    260218500                       # number of ReadReq MSHR miss ticks (Tick)
system.cpu.icache.ReadReq.mshrMissRate::cpu.inst     0.000029                       # mshr miss rate for ReadReq accesses (Ratio)
system.cpu.icache.ReadReq.mshrMissRate::total     0.000029                       # mshr miss rate for ReadReq accesses (Ratio)
system.cpu.icache.ReadReq.avgMshrMissLatency::cpu.inst 65381.532663                       # average ReadReq mshr miss latency ((Tick/Count))
system.cpu.icache.ReadReq.avgMshrMissLatency::total 65381.532663                       # average ReadReq mshr miss latency ((Tick/Count))
system.cpu.icache.power_state.pwrStateResidencyTicks::UNDEFINED 6605144374000                       # Cumulative time (in ticks) in various power states (Tick)
system.cpu.icache.tags.tagsInUse           511.997816                       # Average ticks per tags in use ((Tick/Count))
system.cpu.icache.tags.totalRefs            138168839                       # Total number of references to valid blocks. (Count)
system.cpu.icache.tags.sampledRefs               3980                       # Sample count of references to valid blocks. (Count)
system.cpu.icache.tags.avgRefs           34715.788693                       # Average number of references to valid blocks. ((Count/Count))
system.cpu.icache.tags.warmupTick               77000                       # The tick when the warmup percentage was hit. (Tick)
system.cpu.icache.tags.occupancies::cpu.inst   511.997816                       # Average occupied blocks per tick, per requestor ((Count/Tick))
system.cpu.icache.tags.avgOccs::cpu.inst     0.999996                       # Average percentage of cache occupancy ((Ratio/Tick))
system.cpu.icache.tags.avgOccs::total        0.999996                       # Average percentage of cache occupancy ((Ratio/Tick))
system.cpu.icache.tags.occupanciesTaskId::1024          512                       # Occupied blocks per task id (Count)
system.cpu.icache.tags.ageTaskId_1024::4          512                       # Occupied blocks per task id, per block age (Count)
system.cpu.icache.tags.ratioOccsTaskId::1024            1                       # Ratio of occupied blocks and all blocks, per task id (Ratio)
system.cpu.icache.tags.tagAccesses         1105362684                       # Number of tag accesses (Count)
system.cpu.icache.tags.dataAccesses        1105362684                       # Number of data accesses (Count)
system.cpu.icache.tags.power_state.pwrStateResidencyTicks::UNDEFINED 6605144374000                       # Cumulative time (in ticks) in various power states (Tick)
system.cpu.iew.idleCycles                           0                       # Number of cycles IEW is idle (Cycle)
system.cpu.iew.squashCycles                   1626611                       # Number of cycles IEW is squashing (Cycle)
system.cpu.iew.blockCycles                   48266629                       # Number of cycles IEW is blocking (Cycle)
system.cpu.iew.unblockCycles               5676675152                       # Number of cycles IEW is unblocking (Cycle)
system.cpu.iew.dispatchedInsts             1890824734                       # Number of instructions dispatched to IQ (Count)
system.cpu.iew.dispSquashedInsts                55884                       # Number of squashed instructions skipped by dispatch (Count)
system.cpu.iew.dispLoadInsts                114000534                       # Number of dispatched load instructions (Count)
system.cpu.iew.dispStoreInsts               852828634                       # Number of dispatched store instructions (Count)
system.cpu.iew.dispNonSpecInsts                   583                       # Number of dispatched non-speculative instructions (Count)
system.cpu.iew.iqFullEvents                   1668583                       # Number of times the IQ has become full, causing a stall (Count)
system.cpu.iew.lsqFullEvents               5675818018                       # Number of times the LSQ has become full, causing a stall (Count)
system.cpu.iew.memOrderViolationEvents           2783                       # Number of memory order violations (Count)
system.cpu.iew.predictedTakenIncorrect         112125                       # Number of branches that were predicted taken incorrectly (Count)
system.cpu.iew.predictedNotTakenIncorrect        22296                       # Number of branches that were predicted not taken incorrectly (Count)
system.cpu.iew.branchMispredicts               134421                       # Number of branch mispredicts detected at execute (Count)
system.cpu.iew.instsToCommit               1890029243                       # Cumulative count of insts sent to commit (Count)
system.cpu.iew.writebackCount              1863357445                       # Cumulative count of insts written-back (Count)
system.cpu.iew.producerInst                 720131579                       # Number of instructions producing a value (Count)
system.cpu.iew.consumerInst                1237419975                       # Number of instructions consuming a value (Count)
system.cpu.iew.wbRate                        0.141053                       # Insts written-back per cycle ((Count/Cycle))
system.cpu.iew.wbFanout                      0.581962                       # Average fanout of values written-back ((Count/Count))
system.cpu.interrupts.clk_domain.clock           8000                       # Clock period in ticks (Tick)
system.cpu.itb_walker_cache.blockedCycles::no_mshrs            0                       # number of cycles access was blocked (Cycle)
system.cpu.itb_walker_cache.blockedCycles::no_targets            0                       # number of cycles access was blocked (Cycle)
system.cpu.itb_walker_cache.blockedCauses::no_mshrs            0                       # number of times access was blocked (Count)
system.cpu.itb_walker_cache.blockedCauses::no_targets            0                       # number of times access was blocked (Count)
system.cpu.itb_walker_cache.avgBlocked::no_mshrs          nan                       # average number of cycles each access was blocked ((Cycle/Count))
system.cpu.itb_walker_cache.avgBlocked::no_targets          nan                       # average number of cycles each access was blocked ((Cycle/Count))
system.cpu.itb_walker_cache.replacements            0                       # number of replacements (Count)
system.cpu.itb_walker_cache.power_state.pwrStateResidencyTicks::UNDEFINED 6605144374000                       # Cumulative time (in ticks) in various power states (Tick)
system.cpu.itb_walker_cache.tags.tagsInUse            0                       # Average ticks per tags in use ((Tick/Count))
system.cpu.itb_walker_cache.tags.totalRefs            0                       # Total number of references to valid blocks. (Count)
system.cpu.itb_walker_cache.tags.sampledRefs            0                       # Sample count of references to valid blocks. (Count)
system.cpu.itb_walker_cache.tags.avgRefs          nan                       # Average number of references to valid blocks. ((Count/Count))
system.cpu.itb_walker_cache.tags.warmupTick            0                       # The tick when the warmup percentage was hit. (Tick)
system.cpu.itb_walker_cache.tags.tagAccesses            0                       # Number of tag accesses (Count)
system.cpu.itb_walker_cache.tags.dataAccesses            0                       # Number of data accesses (Count)
system.cpu.itb_walker_cache.tags.power_state.pwrStateResidencyTicks::UNDEFINED 6605144374000                       # Cumulative time (in ticks) in various power states (Tick)
system.cpu.lsq0.forwLoads                    17375281                       # Number of loads that had data forwarded from stores (Count)
system.cpu.lsq0.squashedLoads                  245751                       # Number of loads squashed (Count)
system.cpu.lsq0.ignoredResponses                  231                       # Number of memory responses ignored because the instruction is squashed (Count)
system.cpu.lsq0.memOrderViolation                2783                       # Number of memory ordering violations (Count)
system.cpu.lsq0.squashedStores               48040076                       # Number of stores squashed (Count)
system.cpu.lsq0.rescheduledLoads                    8                       # Number of loads that were rescheduled (Count)
system.cpu.lsq0.blockedByCache                  67953                       # Number of times an access to memory failed due to the cache being blocked (Count)
system.cpu.lsq0.loadToUse::samples          113754770                       # Distribution of cycle latency between the first time a load is issued and its completion (Unspecified)
system.cpu.lsq0.loadToUse::mean              6.343880                       # Distribution of cycle latency between the first time a load is issued and its completion (Unspecified)
system.cpu.lsq0.loadToUse::stdev            23.073447                       # Distribution of cycle latency between the first time a load is issued and its completion (Unspecified)
[...]
system.mem_ctrls.dram.bwTotal::writebacks    932219078                       # Total bandwidth to/from this memory ((Byte/Second))
system.mem_ctrls.dram.bwTotal::cpu.inst         38554                       # Total bandwidth to/from this memory ((Byte/Second))
system.mem_ctrls.dram.bwTotal::cpu.data     941567796                       # Total bandwidth to/from this memory ((Byte/Second))
system.mem_ctrls.dram.bwTotal::total       1873825429                       # Total bandwidth to/from this memory ((Byte/Second))
system.mem_ctrls.dram.readBursts             96543397                       # Number of DRAM read bursts (Count)
system.mem_ctrls.dram.writeBursts            96213425                       # Number of DRAM write bursts (Count)
system.mem_ctrls.dram.perBankRdBursts::0      6024603                       # Per bank write bursts (Count)
system.mem_ctrls.dram.perBankRdBursts::1      6024500                       # Per bank write bursts (Count)
system.mem_ctrls.dram.perBankRdBursts::2      6025377                       # Per bank write bursts (Count)
system.mem_ctrls.dram.perBankRdBursts::3      6025332                       # Per bank write bursts (Count)
system.mem_ctrls.dram.perBankRdBursts::4      6025748                       # Per bank write bursts (Count)
system.mem_ctrls.dram.perBankRdBursts::5      6026159                       # Per bank write bursts (Count)
system.mem_ctrls.dram.perBankRdBursts::6      6025771                       # Per bank write bursts (Count)
system.mem_ctrls.dram.perBankRdBursts::7      6026929                       # Per bank write bursts (Count)
system.mem_ctrls.dram.perBankRdBursts::8      6024033                       # Per bank write bursts (Count)
system.mem_ctrls.dram.perBankRdBursts::9      6157802                       # Per bank write bursts (Count)
system.mem_ctrls.dram.perBankRdBursts::10      6025281                       # Per bank write bursts (Count)
system.mem_ctrls.dram.perBankRdBursts::11      6026221                       # Per bank write bursts (Count)
system.mem_ctrls.dram.perBankRdBursts::12      6026648                       # Per bank write bursts (Count)
system.mem_ctrls.dram.perBankRdBursts::13      6026267                       # Per bank write bursts (Count)
system.mem_ctrls.dram.perBankRdBursts::14      6026130                       # Per bank write bursts (Count)
system.mem_ctrls.dram.perBankRdBursts::15      6026596                       # Per bank write bursts (Count)
system.mem_ctrls.dram.perBankWrBursts::0      6013416                       # Per bank write bursts (Count)
system.mem_ctrls.dram.perBankWrBursts::1      6013342                       # Per bank write bursts (Count)
system.mem_ctrls.dram.perBankWrBursts::2      6013286                       # Per bank write bursts (Count)
system.mem_ctrls.dram.perBankWrBursts::3      6013162                       # Per bank write bursts (Count)
system.mem_ctrls.dram.perBankWrBursts::4      6013193                       # Per bank write bursts (Count)
system.mem_ctrls.dram.perBankWrBursts::5      6013244                       # Per bank write bursts (Count)
system.mem_ctrls.dram.perBankWrBursts::6      6013141                       # Per bank write bursts (Count)
system.mem_ctrls.dram.perBankWrBursts::7      6013215                       # Per bank write bursts (Count)
system.mem_ctrls.dram.perBankWrBursts::8      6013256                       # Per bank write bursts (Count)
system.mem_ctrls.dram.perBankWrBursts::9      6014016                       # Per bank write bursts (Count)
system.mem_ctrls.dram.perBankWrBursts::10      6013425                       # Per bank write bursts (Count)
system.mem_ctrls.dram.perBankWrBursts::11      6013544                       # Per bank write bursts (Count)
system.mem_ctrls.dram.perBankWrBursts::12      6013304                       # Per bank write bursts (Count)
system.mem_ctrls.dram.perBankWrBursts::13      6013266                       # Per bank write bursts (Count)
system.mem_ctrls.dram.perBankWrBursts::14      6013201                       # Per bank write bursts (Count)
system.mem_ctrls.dram.perBankWrBursts::15      6013414                       # Per bank write bursts (Count)
system.mem_ctrls.dram.totQLat            868850452750                       # Total ticks spent queuing (Tick)
system.mem_ctrls.dram.totBusLat          482716985000                       # Total ticks spent in databus transfers (Tick)
system.mem_ctrls.dram.totMemAccLat       2679039146500                       # Total ticks spent from burst creation until serviced by the DRAM (Tick)
system.mem_ctrls.dram.avgQLat                 8999.58                       # Average queueing delay per DRAM burst ((Tick/Count))
system.mem_ctrls.dram.avgBusLat               5000.00                       # Average bus latency per DRAM burst ((Tick/Count))
system.mem_ctrls.dram.avgMemAccLat           27749.58                       # Average memory access latency per DRAM burst ((Tick/Count))
system.mem_ctrls.dram.readRowHits            87152410                       # Number of row buffer hits during reads (Count)
system.mem_ctrls.dram.writeRowHits           89705816                       # Number of row buffer hits during writes (Count)
system.mem_ctrls.dram.readRowHitRate            90.27                       # Row buffer hit rate for reads (Ratio)
system.mem_ctrls.dram.writeRowHitRate           93.24                       # Row buffer hit rate for writes (Ratio)
system.mem_ctrls.dram.bytesPerActivate::samples     15898595                       # Bytes accessed per row activation (Byte)
system.mem_ctrls.dram.bytesPerActivate::mean   775.945074                       # Bytes accessed per row activation (Byte)
system.mem_ctrls.dram.bytesPerActivate::gmean   638.266356                       # Bytes accessed per row activation (Byte)
system.mem_ctrls.dram.bytesPerActivate::stdev   326.658685                       # Bytes accessed per row activation (Byte)
system.mem_ctrls.dram.bytesPerActivate::0-127       989680      6.22%      6.22% # Bytes accessed per row activation (Byte)
system.mem_ctrls.dram.bytesPerActivate::128-255       888603      5.59%     11.81% # Bytes accessed per row activation (Byte)
system.mem_ctrls.dram.bytesPerActivate::256-383       690186      4.34%     16.16% # Bytes accessed per row activation (Byte)
system.mem_ctrls.dram.bytesPerActivate::384-511       709044      4.46%     20.62% # Bytes accessed per row activation (Byte)
system.mem_ctrls.dram.bytesPerActivate::512-639       759879      4.78%     25.39% # Bytes accessed per row activation (Byte)
system.mem_ctrls.dram.bytesPerActivate::640-767      1321160      8.31%     33.70% # Bytes accessed per row activation (Byte)
system.mem_ctrls.dram.bytesPerActivate::768-895      1172222      7.37%     41.08% # Bytes accessed per row activation (Byte)
system.mem_ctrls.dram.bytesPerActivate::896-1023      1421679      8.94%     50.02% # Bytes accessed per row activation (Byte)
system.mem_ctrls.dram.bytesPerActivate::1024-1151      7946142     49.98%    100.00% # Bytes accessed per row activation (Byte)
system.mem_ctrls.dram.bytesPerActivate::total     15898595                       # Bytes accessed per row activation (Byte)
system.mem_ctrls.dram.bytesRead            6178777408                       # Total bytes read (Byte)
system.mem_ctrls.dram.bytesWritten         6157659200                       # Total bytes written (Byte)
system.mem_ctrls.dram.avgRdBW              935.449259                       # Average DRAM read bandwidth in MiBytes/s ((Byte/Second))
system.mem_ctrls.dram.avgWrBW              932.252022                       # Average DRAM write bandwidth in MiBytes/s ((Byte/Second))
system.mem_ctrls.dram.peakBW                 12800.00                       # Theoretical peak bandwidth in MiByte/s ((Byte/Second))
system.mem_ctrls.dram.busUtil                   14.59                       # Data bus utilization in percentage (Ratio)
system.mem_ctrls.dram.busUtilRead                7.31                       # Data bus utilization in percentage for reads (Ratio)
system.mem_ctrls.dram.busUtilWrite               7.28                       # Data bus utilization in percentage for writes (Ratio)
system.mem_ctrls.dram.pageHitRate               91.75                       # Row buffer hit rate, read and write combined (Ratio)
system.mem_ctrls.dram.power_state.pwrStateResidencyTicks::UNDEFINED 6605144374000                       # Cumulative time (in ticks) in various power states (Tick)
system.mem_ctrls.dram.rank0.actEnergy     56605620120                       # Energy for activate commands per rank (pJ) (Joule)
system.mem_ctrls.dram.rank0.preEnergy     30086596815                       # Energy for precharge commands per rank (pJ) (Joule)
system.mem_ctrls.dram.rank0.readEnergy   344179551660                       # Energy for read commands per rank (pJ) (Joule)
system.mem_ctrls.dram.rank0.writeEnergy  251113314780                       # Energy for write commands per rank (pJ) (Joule)
system.mem_ctrls.dram.rank0.refreshEnergy 521404029120.000061                       # Energy for refresh commands per rank (pJ) (Joule)
system.mem_ctrls.dram.rank0.actBackEnergy 2734841663670                       # Energy for active background per rank (pJ) (Joule)
system.mem_ctrls.dram.rank0.preBackEnergy 233350881120                       # Energy for precharge background per rank (pJ) (Joule)
system.mem_ctrls.dram.rank0.actPowerDownEnergy            0                       # Energy for active power-down per rank (pJ) (Joule)
system.mem_ctrls.dram.rank0.prePowerDownEnergy            0                       # Energy for precharge power-down per rank (pJ) (Joule)
system.mem_ctrls.dram.rank0.selfRefreshEnergy            0                       # Energy for self refresh per rank (pJ) (Joule)
system.mem_ctrls.dram.rank0.totalEnergy  4171581657285                       # Total energy per rank (pJ) (Joule)
system.mem_ctrls.dram.rank0.averagePower   631.565553                       # Core power per rank (mW) (Watt)
system.mem_ctrls.dram.rank0.totalIdleTime            0                       # Total Idle time Per DRAM Rank (Tick)
system.mem_ctrls.dram.rank0.pwrStateTime::IDLE 581653784500                       # Time in different power states (Tick)
system.mem_ctrls.dram.rank0.pwrStateTime::REF 220560080000                       # Time in different power states (Tick)
system.mem_ctrls.dram.rank0.pwrStateTime::SREF            0                       # Time in different power states (Tick)
system.mem_ctrls.dram.rank0.pwrStateTime::PRE_PDN            0                       # Time in different power states (Tick)
system.mem_ctrls.dram.rank0.pwrStateTime::ACT 5802930509500                       # Time in different power states (Tick)
system.mem_ctrls.dram.rank0.pwrStateTime::ACT_PDN            0                       # Time in different power states (Tick)
system.mem_ctrls.dram.rank1.actEnergy     56910355320                       # Energy for activate commands per rank (pJ) (Joule)
system.mem_ctrls.dram.rank1.preEnergy     30248571210                       # Energy for precharge commands per rank (pJ) (Joule)
system.mem_ctrls.dram.rank1.readEnergy   345140302920                       # Energy for read commands per rank (pJ) (Joule)
system.mem_ctrls.dram.rank1.writeEnergy  251120763720                       # Energy for write commands per rank (pJ) (Joule)
system.mem_ctrls.dram.rank1.refreshEnergy 521404029120.000061                       # Energy for refresh commands per rank (pJ) (Joule)
system.mem_ctrls.dram.rank1.actBackEnergy 2738073177210                       # Energy for active background per rank (pJ) (Joule)
system.mem_ctrls.dram.rank1.preBackEnergy 230629606560                       # Energy for precharge background per rank (pJ) (Joule)
system.mem_ctrls.dram.rank1.actPowerDownEnergy            0                       # Energy for active power-down per rank (pJ) (Joule)
system.mem_ctrls.dram.rank1.prePowerDownEnergy            0                       # Energy for precharge power-down per rank (pJ) (Joule)
system.mem_ctrls.dram.rank1.selfRefreshEnergy            0                       # Energy for self refresh per rank (pJ) (Joule)
system.mem_ctrls.dram.rank1.totalEnergy  4173526806060                       # Total energy per rank (pJ) (Joule)
system.mem_ctrls.dram.rank1.averagePower   631.860043                       # Core power per rank (mW) (Watt)
system.mem_ctrls.dram.rank1.totalIdleTime            0                       # Total Idle time Per DRAM Rank (Tick)
system.mem_ctrls.dram.rank1.pwrStateTime::IDLE 574581207750                       # Time in different power states (Tick)
system.mem_ctrls.dram.rank1.pwrStateTime::REF 220560080000                       # Time in different power states (Tick)
system.mem_ctrls.dram.rank1.pwrStateTime::SREF            0                       # Time in different power states (Tick)
system.mem_ctrls.dram.rank1.pwrStateTime::PRE_PDN            0                       # Time in different power states (Tick)
system.mem_ctrls.dram.rank1.pwrStateTime::ACT 5810003086250                       # Time in different power states (Tick)
system.mem_ctrls.dram.rank1.pwrStateTime::ACT_PDN            0                       # Time in different power states (Tick)
system.mem_ctrls.power_state.pwrStateResidencyTicks::UNDEFINED 6605144374000                       # Cumulative time (in ticks) in various power states (Tick)
system.membus.transDist::ReadResp              969672                       # Transaction distribution (Count)
system.membus.transDist::WritebackDirty      96210025                       # Transaction distribution (Count)
system.membus.transDist::WritebackClean          3466                       # Transaction distribution (Count)
system.membus.transDist::CleanEvict            964326                       # Transaction distribution (Count)
system.membus.transDist::UpgradeReq                 2                       # Transaction distribution (Count)
system.membus.transDist::ReadExReq           96209171                       # Transaction distribution (Count)
system.membus.transDist::ReadExResp          96209171                       # Transaction distribution (Count)
system.membus.transDist::ReadCleanReq            3980                       # Transaction distribution (Count)
system.membus.transDist::ReadSharedReq         965692                       # Transaction distribution (Count)
system.membus.pktCount_system.cpu.icache.mem_side_port::system.mem_ctrls.port        11425                       # Packet count per connected requestor and responder (Count)
system.membus.pktCount_system.cpu.icache.mem_side_port::total        11425                       # Packet count per connected requestor and responder (Count)
system.membus.pktCount_system.cpu.dcache.mem_side_port::system.mem_ctrls.port    291524079                       # Packet count per connected requestor and responder (Count)
system.membus.pktCount_system.cpu.dcache.mem_side_port::total    291524079                       # Packet count per connected requestor and responder (Count)
system.membus.pktCount::total               291535504                       # Packet count per connected requestor and responder (Count)
system.membus.pktSize_system.cpu.icache.mem_side_port::system.mem_ctrls.port       476480                       # Cumulative packet size per connected requestor and responder (Byte)
system.membus.pktSize_system.cpu.icache.mem_side_port::total       476480                       # Cumulative packet size per connected requestor and responder (Byte)
system.membus.pktSize_system.cpu.dcache.mem_side_port::system.mem_ctrls.port  12376632832                       # Cumulative packet size per connected requestor and responder (Byte)
system.membus.pktSize_system.cpu.dcache.mem_side_port::total  12376632832                       # Cumulative packet size per connected requestor and responder (Byte)
system.membus.pktSize::total              12377109312                       # Cumulative packet size per connected requestor and responder (Byte)
system.membus.snoops                                1                       # Total snoops (Count)
system.membus.snoopTraffic                         64                       # Total snoop traffic (Byte)
system.membus.snoopFanout::samples           97178845                       # Request fanout histogram (Count)
system.membus.snoopFanout::mean              0.000000                       # Request fanout histogram (Count)
system.membus.snoopFanout::stdev             0.000336                       # Request fanout histogram (Count)
system.membus.snoopFanout::underflows               0      0.00%      0.00% # Request fanout histogram (Count)
system.membus.snoopFanout::0                 97178834    100.00%    100.00% # Request fanout histogram (Count)
system.membus.snoopFanout::1                       11      0.00%    100.00% # Request fanout histogram (Count)
system.membus.snoopFanout::2                        0      0.00%    100.00% # Request fanout histogram (Count)
system.membus.snoopFanout::3                        0      0.00%    100.00% # Request fanout histogram (Count)
system.membus.snoopFanout::4                        0      0.00%    100.00% # Request fanout histogram (Count)
system.membus.snoopFanout::overflows                0      0.00%    100.00% # Request fanout histogram (Count)
system.membus.snoopFanout::min_value                0                       # Request fanout histogram (Count)
system.membus.snoopFanout::max_value                1                       # Request fanout histogram (Count)
system.membus.snoopFanout::total             97178845                       # Request fanout histogram (Count)
system.membus.power_state.pwrStateResidencyTicks::UNDEFINED 6605144374000                       # Cumulative time (in ticks) in various power states (Tick)
system.membus.reqLayer2.occupancy        579944651000                       # Layer occupancy (ticks) (Tick)
system.membus.reqLayer2.utilization               0.1                       # Layer utilization (Ratio)
system.membus.respLayer1.occupancy           21189250                       # Layer occupancy (ticks) (Tick)
system.membus.respLayer1.utilization              0.0                       # Layer utilization (Ratio)
system.membus.respLayer2.occupancy       512914591000                       # Layer occupancy (ticks) (Tick)
system.membus.respLayer2.utilization              0.1                       # Layer utilization (Ratio)
system.membus.snoop_filter.totRequests      194356662                       # Total number of requests made to the snoop filter. (Count)
system.membus.snoop_filter.hitSingleRequests     97177817                       # Number of requests hitting in the snoop filter with a single holder of the requested data. (Count)
system.membus.snoop_filter.hitMultiRequests           11                       # Number of requests hitting in the snoop filter with multiple (>1) holders of the requested data. (Count)
system.membus.snoop_filter.totSnoops                0                       # Total number of snoops made to the snoop filter. (Count)
system.membus.snoop_filter.hitSingleSnoops            0                       # Number of snoops hitting in the snoop filter with a single holder of the requested data. (Count)
system.membus.snoop_filter.hitMultiSnoops            0                       # Number of snoops hitting in the snoop filter with multiple (>1) holders of the requested data. (Count)
system.voltage_domain.voltage                       1                       # Voltage in Volts (Volt)
system.workload.inst.arm                            0                       # number of arm instructions executed (Count)
system.workload.inst.quiesce                        0                       # number of quiesce instructions executed (Count)

---------- End Simulation Statistics   ----------
