
---------- Begin Simulation Statistics ----------
simSeconds                                   0.612077                       # Number of seconds simulated (Second)
simTicks                                 612077200500                       # Number of ticks simulated (Tick)
finalTick                                612077200500                       # Number of ticks from beginning of simulation (restored from checkpoints and never reset) (Tick)
simFreq                                  1000000000000                       # The number of ticks per simulated second ((Tick/Second))
hostSeconds                                   8552.65                       # Real time elapsed on the host (Second)
hostTickRate                                 71565804                       # The number of ticks simulated per host second (ticks/s) ((Tick/Second))
hostMemory                                    8973172                       # Number of bytes of host memory used (Byte)
simInsts                                   1000000000                       # Number of instructions simulated (Count)
simOps                                     1704950797                       # Number of ops (including micro ops) simulated (Count)
hostInstRate                                   116923                       # Simulator instruction rate (inst/s) ((Count/Second))
hostOpRate                                     199348                       # Simulator op (including micro ops) rate (op/s) ((Count/Second))
system.clk_domain.clock                          1000                       # Clock period in ticks (Tick)
system.cpu.numCycles                       1224154402                       # Number of cpu cycles simulated (Cycle)
system.cpu.numWorkItemsStarted                      0                       # Number of work items this cpu started (Count)
system.cpu.numWorkItemsCompleted                    0                       # Number of work items this cpu completed (Count)
system.cpu.instsAdded                      1742115105                       # Number of instructions added to the IQ (excludes non-spec) (Count)
system.cpu.nonSpecInstsAdded                    11553                       # Number of non-speculative instructions added to the IQ (Count)
system.cpu.instsIssued                     1733863809                       # Number of instructions issued (Count)
system.cpu.squashedInstsIssued                  83038                       # Number of squashed instructions issued (Count)
system.cpu.squashedInstsExamined             37175806                       # Number of squashed instructions iterated over during squash; mainly for profiling (Count)
system.cpu.squashedOperandsExamined          53537652                       # Number of squashed operands that are examined and possibly removed from graph (Count)
system.cpu.squashedNonSpecRemoved                5927                       # Number of squashed non-spec instructions that were removed (Count)
system.cpu.numIssuedDist::samples          1216876061                       # Number of insts issued each cycle (Count)
system.cpu.numIssuedDist::mean               1.424848                       # Number of insts issued each cycle (Count)
system.cpu.numIssuedDist::stdev              2.199013                       # Number of insts issued each cycle (Count)
system.cpu.numIssuedDist::underflows                0      0.00%      0.00% # Number of insts issued each cycle (Count)
system.cpu.numIssuedDist::0                 756493629     62.17%     62.17% # Number of insts issued each cycle (Count)
system.cpu.numIssuedDist::1                  70681886      5.81%     67.98% # Number of insts issued each cycle (Count)
system.cpu.numIssuedDist::2                  82048184      6.74%     74.72% # Number of insts issued each cycle (Count)
system.cpu.numIssuedDist::3                  76605209      6.30%     81.01% # Number of insts issued each cycle (Count)
system.cpu.numIssuedDist::4                  57303502      4.71%     85.72% # Number of insts issued each cycle (Count)
system.cpu.numIssuedDist::5                  54715897      4.50%     90.22% # Number of insts issued each cycle (Count)
system.cpu.numIssuedDist::6                  75110982      6.17%     96.39% # Number of insts issued each cycle (Count)
system.cpu.numIssuedDist::7                  35523633      2.92%     99.31% # Number of insts issued each cycle (Count)
system.cpu.numIssuedDist::8                   8393139      0.69%    100.00% # Number of insts issued each cycle (Count)
system.cpu.numIssuedDist::overflows                 0      0.00%    100.00% # Number of insts issued each cycle (Count)
system.cpu.numIssuedDist::min_value                 0                       # Number of insts issued each cycle (Count)
system.cpu.numIssuedDist::max_value                 8                       # Number of insts issued each cycle (Count)
system.cpu.numIssuedDist::total            1216876061                       # Number of insts issued each cycle (Count)
system.cpu.statFuBusy::No_OpClass                   0      0.00%      0.00% # attempts to use FU when none available (Count)
system.cpu.statFuBusy::IntAlu                24477987     89.12%     89.12% # attempts to use FU when none available (Count)
system.cpu.statFuBusy::IntMult                      0      0.00%     89.12% # attempts to use FU when none available (Count)
system.cpu.statFuBusy::IntDiv                       0      0.00%     89.12% # attempts to use FU when none available (Count)
system.cpu.statFuBusy::FloatAdd                     0      0.00%     89.12% # attempts to use FU when none available (Count)
system.cpu.statFuBusy::FloatCmp                     0      0.00%     89.12% # attempts to use FU when none available (Count)
system.cpu.statFuBusy::FloatCvt                     5      0.00%     89.12% # attempts to use FU when none available (Count)
system.cpu.statFuBusy::FloatMult                    0      0.00%     89.12% # attempts to use FU when none available (Count)
system.cpu.statFuBusy::FloatMultAcc                 0      0.00%     89.12% # attempts to use FU when none available (Count)
system.cpu.statFuBusy::FloatDiv                     0      0.00%     89.12% # attempts to use FU when none available (Count)
system.cpu.statFuBusy::FloatMisc                    0      0.00%     89.12% # attempts to use FU when none available (Count)
system.cpu.statFuBusy::FloatSqrt                    0      0.00%     89.12% # attempts to use FU when none available (Count)
system.cpu.statFuBusy::SimdAdd                   1568      0.01%     89.13% # attempts to use FU when none available (Count)
system.cpu.statFuBusy::SimdAddAcc                   0      0.00%     89.13% # attempts to use FU when none available (Count)
system.cpu.statFuBusy::SimdAlu                 264616      0.96%     90.09% # attempts to use FU when none available (Count)
system.cpu.statFuBusy::SimdCmp                      0      0.00%     90.09% # attempts to use FU when none available (Count)
system.cpu.statFuBusy::SimdCvt                    341      0.00%     90.10% # attempts to use FU when none available (Count)
system.cpu.statFuBusy::SimdMisc                606851      2.21%     92.30% # attempts to use FU when none available (Count)
system.cpu.statFuBusy::SimdMult                     0      0.00%     92.30% # attempts to use FU when none available (Count)
system.cpu.statFuBusy::SimdMultAcc                  0      0.00%     92.30% # attempts to use FU when none available (Count)
system.cpu.statFuBusy::SimdShift               576122      2.10%     94.40% # attempts to use FU when none available (Count)
system.cpu.statFuBusy::SimdShiftAcc                 0      0.00%     94.40% # attempts to use FU when none available (Count)
system.cpu.statFuBusy::SimdDiv                      0      0.00%     94.40% # attempts to use FU when none available (Count)
system.cpu.statFuBusy::SimdSqrt                     0      0.00%     94.40% # attempts to use FU when none available (Count)
system.cpu.statFuBusy::SimdFloatAdd              3262      0.01%     94.41% # attempts to use FU when none available (Count)
system.cpu.statFuBusy::SimdFloatAlu                 0      0.00%     94.41% # attempts to use FU when none available (Count)
system.cpu.statFuBusy::SimdFloatCmp                 0      0.00%     94.41% # attempts to use FU when none available (Count)
system.cpu.statFuBusy::SimdFloatCvt              3592      0.01%     94.43% # attempts to use FU when none available (Count)
system.cpu.statFuBusy::SimdFloatDiv               901      0.00%     94.43% # attempts to use FU when none available (Count)
system.cpu.statFuBusy::SimdFloatMisc                0      0.00%     94.43% # attempts to use FU when none available (Count)
system.cpu.statFuBusy::SimdFloatMult             2622      0.01%     94.44% # attempts to use FU when none available (Count)
system.cpu.statFuBusy::SimdFloatMultAcc             0      0.00%     94.44% # attempts to use FU when none available (Count)
system.cpu.statFuBusy::SimdFloatSqrt                0      0.00%     94.44% # attempts to use FU when none available (Count)
system.cpu.statFuBusy::SimdReduceAdd                0      0.00%     94.44% # attempts to use FU when none available (Count)
system.cpu.statFuBusy::SimdReduceAlu                0      0.00%     94.44% # attempts to use FU when none available (Count)
system.cpu.statFuBusy::SimdReduceCmp                0      0.00%     94.44% # attempts to use FU when none available (Count)
system.cpu.statFuBusy::SimdFloatReduceAdd            0      0.00%     94.44% # attempts to use FU when none available (Count)
system.cpu.statFuBusy::SimdFloatReduceCmp            0      0.00%     94.44% # attempts to use FU when none available (Count)
system.cpu.statFuBusy::SimdAes                      0      0.00%     94.44% # attempts to use FU when none available (Count)
system.cpu.statFuBusy::SimdAesMix                   0      0.00%     94.44% # attempts to use FU when none available (Count)
system.cpu.statFuBusy::SimdSha1Hash                 0      0.00%     94.44% # attempts to use FU when none available (Count)
system.cpu.statFuBusy::SimdSha1Hash2                0      0.00%     94.44% # attempts to use FU when none available (Count)
system.cpu.statFuBusy::SimdSha256Hash               0      0.00%     94.44% # attempts to use FU when none available (Count)
system.cpu.statFuBusy::SimdSha256Hash2              0      0.00%     94.44% # attempts to use FU when none available (Count)
system.cpu.statFuBusy::SimdShaSigma2                0      0.00%     94.44% # attempts to use FU when none available (Count)
system.cpu.statFuBusy::SimdShaSigma3                0      0.00%     94.44% # attempts to use FU when none available (Count)
system.cpu.statFuBusy::SimdPredAlu                  0      0.00%     94.44% # attempts to use FU when none available (Count)
system.cpu.statFuBusy::MemRead                1361114      4.96%     99.40% # attempts to use FU when none available (Count)
system.cpu.statFuBusy::MemWrite                 70321      0.26%     99.65% # attempts to use FU when none available (Count)
system.cpu.statFuBusy::FloatMemRead             78383      0.29%     99.94% # attempts to use FU when none available (Count)
system.cpu.statFuBusy::FloatMemWrite            17106      0.06%    100.00% # attempts to use FU when none available (Count)
system.cpu.statFuBusy::IprAccess                    0      0.00%    100.00% # attempts to use FU when none available (Count)
system.cpu.statFuBusy::InstPrefetch                 0      0.00%    100.00% # attempts to use FU when none available (Count)
system.cpu.statIssuedInstType_0::No_OpClass     52190661      3.01%      3.01% # Number of instructions issued per FU type, per thread (Count)
system.cpu.statIssuedInstType_0::IntAlu    1422240792     82.03%     85.04% # Number of instructions issued per FU type, per thread (Count)
system.cpu.statIssuedInstType_0::IntMult     49706774      2.87%     87.90% # Number of instructions issued per FU type, per thread (Count)
system.cpu.statIssuedInstType_0::IntDiv       8490963      0.49%     88.39% # Number of instructions issued per FU type, per thread (Count)
system.cpu.statIssuedInstType_0::FloatAdd      2139397      0.12%     88.52% # Number of instructions issued per FU type, per thread (Count)
system.cpu.statIssuedInstType_0::FloatCmp            0      0.00%     88.52% # Number of instructions issued per FU type, per thread (Count)
system.cpu.statIssuedInstType_0::FloatCvt         8079      0.00%     88.52% # Number of instructions issued per FU type, per thread (Count)
system.cpu.statIssuedInstType_0::FloatMult            0      0.00%     88.52% # Number of instructions issued per FU type, per thread (Count)
system.cpu.statIssuedInstType_0::FloatMultAcc            0      0.00%     88.52% # Number of instructions issued per FU type, per thread (Count)
system.cpu.statIssuedInstType_0::FloatDiv            0      0.00%     88.52% # Number of instructions issued per FU type, per thread (Count)
system.cpu.statIssuedInstType_0::FloatMisc            0      0.00%     88.52% # Number of instructions issued per FU type, per thread (Count)
system.cpu.statIssuedInstType_0::FloatSqrt            0      0.00%     88.52% # Number of instructions issued per FU type, per thread (Count)
system.cpu.statIssuedInstType_0::SimdAdd        81017      0.00%     88.52% # Number of instructions issued per FU type, per thread (Count)
system.cpu.statIssuedInstType_0::SimdAddAcc            0      0.00%     88.52% # Number of instructions issued per FU type, per thread (Count)
system.cpu.statIssuedInstType_0::SimdAlu      1350372      0.08%     88.60% # Number of instructions issued per FU type, per thread (Count)
system.cpu.statIssuedInstType_0::SimdCmp           48      0.00%     88.60% # Number of instructions issued per FU type, per thread (Count)
system.cpu.statIssuedInstType_0::SimdCvt        36962      0.00%     88.60% # Number of instructions issued per FU type, per thread (Count)
system.cpu.statIssuedInstType_0::SimdMisc      3522604      0.20%     88.81% # Number of instructions issued per FU type, per thread (Count)
system.cpu.statIssuedInstType_0::SimdMult            6      0.00%     88.81% # Number of instructions issued per FU type, per thread (Count)
system.cpu.statIssuedInstType_0::SimdMultAcc            0      0.00%     88.81% # Number of instructions issued per FU type, per thread (Count)
system.cpu.statIssuedInstType_0::SimdShift      1125449      0.06%     88.87% # Number of instructions issued per FU type, per thread (Count)
system.cpu.statIssuedInstType_0::SimdShiftAcc            0      0.00%     88.87% # Number of instructions issued per FU type, per thread (Count)
system.cpu.statIssuedInstType_0::SimdDiv            0      0.00%     88.87% # Number of instructions issued per FU type, per thread (Count)
system.cpu.statIssuedInstType_0::SimdSqrt            0      0.00%     88.87% # Number of instructions issued per FU type, per thread (Count)
system.cpu.statIssuedInstType_0::SimdFloatAdd       822815      0.05%     88.92% # Number of instructions issued per FU type, per thread (Count)
system.cpu.statIssuedInstType_0::SimdFloatAlu            0      0.00%     88.92% # Number of instructions issued per FU type, per thread (Count)
system.cpu.statIssuedInstType_0::SimdFloatCmp            0      0.00%     88.92% # Number of instructions issued per FU type, per thread (Count)
system.cpu.statIssuedInstType_0::SimdFloatCvt       794386      0.05%     88.96% # Number of instructions issued per FU type, per thread (Count)
system.cpu.statIssuedInstType_0::SimdFloatDiv        58909      0.00%     88.97% # Number of instructions issued per FU type, per thread (Count)
system.cpu.statIssuedInstType_0::SimdFloatMisc            0      0.00%     88.97% # Number of instructions issued per FU type, per thread (Count)
system.cpu.statIssuedInstType_0::SimdFloatMult       662707      0.04%     89.01% # Number of instructions issued per FU type, per thread (Count)
system.cpu.statIssuedInstType_0::SimdFloatMultAcc            0      0.00%     89.01% # Number of instructions issued per FU type, per thread (Count)
system.cpu.statIssuedInstType_0::SimdFloatSqrt            2      0.00%     89.01% # Number of instructions issued per FU type, per thread (Count)
system.cpu.statIssuedInstType_0::SimdReduceAdd            0      0.00%     89.01% # Number of instructions issued per FU type, per thread (Count)
system.cpu.statIssuedInstType_0::SimdReduceAlu            0      0.00%     89.01% # Number of instructions issued per FU type, per thread (Count)
system.cpu.statIssuedInstType_0::SimdReduceCmp            0      0.00%     89.01% # Number of instructions issued per FU type, per thread (Count)
system.cpu.statIssuedInstType_0::SimdFloatReduceAdd            0      0.00%     89.01% # Number of instructions issued per FU type, per thread (Count)
system.cpu.statIssuedInstType_0::SimdFloatReduceCmp            0      0.00%     89.01% # Number of instructions issued per FU type, per thread (Count)
system.cpu.statIssuedInstType_0::SimdAes            0      0.00%     89.01% # Number of instructions issued per FU type, per thread (Count)
system.cpu.statIssuedInstType_0::SimdAesMix            0      0.00%     89.01% # Number of instructions issued per FU type, per thread (Count)
system.cpu.statIssuedInstType_0::SimdSha1Hash            0      0.00%     89.01% # Number of instructions issued per FU type, per thread (Count)
system.cpu.statIssuedInstType_0::SimdSha1Hash2            0      0.00%     89.01% # Number of instructions issued per FU type, per thread (Count)
system.cpu.statIssuedInstType_0::SimdSha256Hash            0      0.00%     89.01% # Number of instructions issued per FU type, per thread (Count)
system.cpu.statIssuedInstType_0::SimdSha256Hash2            0      0.00%     89.01% # Number of instructions issued per FU type, per thread (Count)
system.cpu.statIssuedInstType_0::SimdShaSigma2            0      0.00%     89.01% # Number of instructions issued per FU type, per thread (Count)
system.cpu.statIssuedInstType_0::SimdShaSigma3            0      0.00%     89.01% # Number of instructions issued per FU type, per thread (Count)
system.cpu.statIssuedInstType_0::SimdPredAlu            0      0.00%     89.01% # Number of instructions issued per FU type, per thread (Count)
system.cpu.statIssuedInstType_0::MemRead     88732544      5.12%     94.12% # Number of instructions issued per FU type, per thread (Count)
system.cpu.statIssuedInstType_0::MemWrite     35277006      2.03%     96.16% # Number of instructions issued per FU type, per thread (Count)
system.cpu.statIssuedInstType_0::FloatMemRead      3886008      0.22%     96.38% # Number of instructions issued per FU type, per thread (Count)
system.cpu.statIssuedInstType_0::FloatMemWrite     62736308      3.62%    100.00% # Number of instructions issued per FU type, per thread (Count)
system.cpu.statIssuedInstType_0::IprAccess            0      0.00%    100.00% # Number of instructions issued per FU type, per thread (Count)
system.cpu.statIssuedInstType_0::InstPrefetch            0      0.00%    100.00% # Number of instructions issued per FU type, per thread (Count)
system.cpu.statIssuedInstType_0::total     1733863809                       # Number of instructions issued per FU type, per thread (Count)
system.cpu.issueRate                         1.416377                       # Inst issue rate ((Count/Cycle))
system.cpu.fuBusy                            27464791                       # FU busy when requested (Count)
system.cpu.fuBusyRate                        0.015840                       # FU busy rate (busy events/executed inst) ((Count/Count))
system.cpu.intInstQueueReads               4548442803                       # Number of integer instruction queue reads (Count)
system.cpu.intInstQueueWrites              1695039099                       # Number of integer instruction queue writes (Count)
system.cpu.intInstQueueWakeupAccesses      1651569674                       # Number of integer instruction queue wakeup accesses (Count)
system.cpu.fpInstQueueReads                 163708702                       # Number of floating instruction queue reads (Count)
system.cpu.fpInstQueueWrites                 84268089                       # Number of floating instruction queue writes (Count)
system.cpu.fpInstQueueWakeupAccesses         79313009                       # Number of floating instruction queue wakeup accesses (Count)
system.cpu.vecInstQueueReads                        0                       # Number of vector instruction queue reads (Count)
system.cpu.vecInstQueueWrites                       0                       # Number of vector instruction queue writes (Count)
system.cpu.vecInstQueueWakeupAccesses               0                       # Number of vector instruction queue wakeup accesses (Count)
system.cpu.intAluAccesses                  1626505792                       # Number of integer alu accesses (Count)
system.cpu.fpAluAccesses                     82632147                       # Number of floating point alu accesses (Count)
system.cpu.vecAluAccesses                           0                       # Number of vector alu accesses (Count)
system.cpu.numInsts                        1732827112                       # Number of executed instructions (Count)
system.cpu.numLoadInsts                      92543210                       # Number of load instructions executed (Count)
system.cpu.numSquashedInsts                   1036694                       # Number of squashed instructions skipped in execute (Count)
system.cpu.numSwp                                   0                       # Number of swp insts executed (Count)
system.cpu.numNop                                   0                       # Number of nop insts executed (Count)
system.cpu.numRefs                          190495712                       # Number of memory reference insts executed (Count)
system.cpu.numBranches                      166846329                       # Number of branches executed (Count)
system.cpu.numStoreInsts                     97952502                       # Number of stores executed (Count)
system.cpu.numRate                           1.415530                       # Inst execution rate ((Count/Cycle))
system.cpu.timesIdled                           79218                       # Number of times that the entire CPU went into an idle state and unscheduled itself (Count)
system.cpu.idleCycles                         7278341                       # Total number of cycles that the CPU has spent unscheduled due to idling (Cycle)
system.cpu.committedInsts                  1000000000                       # Number of Instructions Simulated (Count)
system.cpu.committedOps                    1704950797                       # Number of Ops (including micro ops) Simulated (Count)
system.cpu.cpi                               1.224154                       # CPI: Cycles Per Instruction ((Cycle/Count))
system.cpu.totalCpi                          1.224154                       # CPI: Total CPI of All Threads ((Cycle/Count))
system.cpu.ipc                               0.816890                       # IPC: Instructions Per Cycle ((Count/Cycle))
system.cpu.totalIpc                          0.816890                       # IPC: Total IPC of All Threads ((Count/Cycle))
system.cpu.intRegfileReads                 2318148957                       # Number of integer regfile reads (Count)
system.cpu.intRegfileWrites                1258322264                       # Number of integer regfile writes (Count)
system.cpu.fpRegfileReads                    89653128                       # Number of floating regfile reads (Count)
system.cpu.fpRegfileWrites                   17401976                       # Number of floating regfile writes (Count)
system.cpu.ccRegfileReads                   944621754                       # number of cc regfile reads (Count)
system.cpu.ccRegfileWrites                 1050008202                       # number of cc regfile writes (Count)
system.cpu.miscRegfileReads                 528162510                       # number of misc regfile reads (Count)
system.cpu.miscRegfileWrites                     1036                       # number of misc regfile writes (Count)
system.cpu.MemDepUnit__0.insertedLoads       92690070                       # Number of loads inserted to the mem dependence unit. (Count)
system.cpu.MemDepUnit__0.insertedStores      98631670                       # Number of stores inserted to the mem dependence unit. (Count)
system.cpu.MemDepUnit__0.conflictingLoads      1901271                       # Number of conflicting loads. (Count)
system.cpu.MemDepUnit__0.conflictingStores      1067431                       # Number of conflicting stores. (Count)
system.cpu.MemDepUnit__1.insertedLoads              0                       # Number of loads inserted to the mem dependence unit. (Count)
system.cpu.MemDepUnit__1.insertedStores             0                       # Number of stores inserted to the mem dependence unit. (Count)
system.cpu.MemDepUnit__1.conflictingLoads            0                       # Number of conflicting loads. (Count)
system.cpu.MemDepUnit__1.conflictingStores            0                       # Number of conflicting stores. (Count)
system.cpu.MemDepUnit__2.insertedLoads              0                       # Number of loads inserted to the mem dependence unit. (Count)
system.cpu.MemDepUnit__2.insertedStores             0                       # Number of stores inserted to the mem dependence unit. (Count)
system.cpu.MemDepUnit__2.conflictingLoads            0                       # Number of conflicting loads. (Count)
system.cpu.MemDepUnit__2.conflictingStores            0                       # Number of conflicting stores. (Count)
system.cpu.MemDepUnit__3.insertedLoads              0                       # Number of loads inserted to the mem dependence unit. (Count)
system.cpu.MemDepUnit__3.insertedStores             0                       # Number of stores inserted to the mem dependence unit. (Count)
system.cpu.MemDepUnit__3.conflictingLoads            0                       # Number of conflicting loads. (Count)
system.cpu.MemDepUnit__3.conflictingStores            0                       # Number of conflicting stores. (Count)
system.cpu.branchPred.lookups               170621082                       # Number of BP lookups (Count)
system.cpu.branchPred.condPredicted         156903241                       # Number of conditional branches predicted (Count)
system.cpu.branchPred.condIncorrect            802356                       # Number of conditional branches incorrect (Count)
system.cpu.branchPred.BTBLookups             82199787                       # Number of BTB lookups (Count)
system.cpu.branchPred.BTBHits                82080073                       # Number of BTB hits (Count)
system.cpu.branchPred.BTBHitRatio            0.998544                       # BTB Hit Ratio (Ratio)
system.cpu.branchPred.RASUsed                 2438400                       # Number of times the RAS was used to get a target. (Count)
system.cpu.branchPred.RASIncorrect                276                       # Number of incorrect RAS predictions. (Count)
system.cpu.branchPred.indirectLookups         1539521                       # Number of indirect predictor lookups. (Count)
system.cpu.branchPred.indirectHits            1456760                       # Number of indirect target hits. (Count)
system.cpu.branchPred.indirectMisses            82761                       # Number of indirect misses. (Count)
system.cpu.branchPred.indirectMispredicted        15530                       # Number of mispredicted indirect branches. (Count)
system.cpu.commit.commitSquashedInsts        37002397                       # The number of squashed insts skipped by commit (Count)
system.cpu.commit.commitNonSpecStalls            5626                       # The number of times commit has been forced to stall to communicate backwards (Count)
system.cpu.commit.branchMispredicts            741478                       # The number of times a branch was mispredicted (Count)
system.cpu.commit.numCommittedDist::samples   1211858772                       # Number of insts commited each cycle (Count)
system.cpu.commit.numCommittedDist::mean     1.406889                       # Number of insts commited each cycle (Count)
system.cpu.commit.numCommittedDist::stdev     2.566098                       # Number of insts commited each cycle (Count)
system.cpu.commit.numCommittedDist::underflows            0      0.00%      0.00% # Number of insts commited each cycle (Count)
system.cpu.commit.numCommittedDist::0       814318158     67.20%     67.20% # Number of insts commited each cycle (Count)
system.cpu.commit.numCommittedDist::1        88460290      7.30%     74.50% # Number of insts commited each cycle (Count)
system.cpu.commit.numCommittedDist::2        62524948      5.16%     79.65% # Number of insts commited each cycle (Count)
system.cpu.commit.numCommittedDist::3        38351649      3.16%     82.82% # Number of insts commited each cycle (Count)
system.cpu.commit.numCommittedDist::4        50047977      4.13%     86.95% # Number of insts commited each cycle (Count)
system.cpu.commit.numCommittedDist::5        16825250      1.39%     88.34% # Number of insts commited each cycle (Count)
system.cpu.commit.numCommittedDist::6         3484501      0.29%     88.63% # Number of insts commited each cycle (Count)
system.cpu.commit.numCommittedDist::7        31607492      2.61%     91.23% # Number of insts commited each cycle (Count)
system.cpu.commit.numCommittedDist::8       106238507      8.77%    100.00% # Number of insts commited each cycle (Count)
system.cpu.commit.numCommittedDist::overflows            0      0.00%    100.00% # Number of insts commited each cycle (Count)
system.cpu.commit.numCommittedDist::min_value            0                       # Number of insts commited each cycle (Count)
system.cpu.commit.numCommittedDist::max_value            8                       # Number of insts commited each cycle (Count)
system.cpu.commit.numCommittedDist::total   1211858772                       # Number of insts commited each cycle (Count)
system.cpu.commit.instsCommitted           1000000000                       # Number of instructions committed (Count)
system.cpu.commit.opsCommitted             1704950797                       # Number of ops (including micro ops) committed (Count)
system.cpu.commit.memRefs                   187483026                       # Number of memory references committed (Count)
system.cpu.commit.loads                      91667757                       # Number of loads committed (Count)
system.cpu.commit.amos                              0                       # Number of atomic instructions committed (Count)
system.cpu.commit.membars                        3060                       # Number of memory barriers committed (Count)
system.cpu.commit.branches                  164653860                       # Number of branches committed (Count)
system.cpu.commit.vectorInstructions                0                       # Number of committed Vector instructions. (Count)
system.cpu.commit.floating                   78792293                       # Number of committed floating point instructions. (Count)
system.cpu.commit.integer                  1638285148                       # Number of committed integer instructions. (Count)
system.cpu.commit.functionCalls               2379515                       # Number of function calls committed. (Count)
system.cpu.commit.committedInstType_0::No_OpClass     50687478      2.97%      2.97% # Class of committed instruction (Count)
system.cpu.commit.committedInstType_0::IntAlu   1398689521     82.04%     85.01% # Class of committed instruction (Count)
system.cpu.commit.committedInstType_0::IntMult     49138642      2.88%     87.89% # Class of committed instruction (Count)
system.cpu.commit.committedInstType_0::IntDiv      8477958      0.50%     88.39% # Class of committed instruction (Count)
system.cpu.commit.committedInstType_0::FloatAdd      2097176      0.12%     88.51% # Class of committed instruction (Count)
system.cpu.commit.committedInstType_0::FloatCmp            0      0.00%     88.51% # Class of committed instruction (Count)
system.cpu.commit.committedInstType_0::FloatCvt         1664      0.00%     88.51% # Class of committed instruction (Count)
system.cpu.commit.committedInstType_0::FloatMult            0      0.00%     88.51% # Class of committed instruction (Count)
system.cpu.commit.committedInstType_0::FloatMultAcc            0      0.00%     88.51% # Class of committed instruction (Count)
system.cpu.commit.committedInstType_0::FloatDiv            0      0.00%     88.51% # Class of committed instruction (Count)
system.cpu.commit.committedInstType_0::FloatMisc            0      0.00%     88.51% # Class of committed instruction (Count)
system.cpu.commit.committedInstType_0::FloatSqrt            0      0.00%     88.51% # Class of committed instruction (Count)
system.cpu.commit.committedInstType_0::SimdAdd        79880      0.00%     88.52% # Class of committed instruction (Count)
system.cpu.commit.committedInstType_0::SimdAddAcc            0      0.00%     88.52% # Class of committed instruction (Count)
system.cpu.commit.committedInstType_0::SimdAlu      1323807      0.08%     88.59% # Class of committed instruction (Count)
system.cpu.commit.committedInstType_0::SimdCmp           48      0.00%     88.59% # Class of committed instruction (Count)
system.cpu.commit.committedInstType_0::SimdCvt        35450      0.00%     88.60% # Class of committed instruction (Count)
system.cpu.commit.committedInstType_0::SimdMisc      3502334      0.21%     88.80% # Class of committed instruction (Count)
system.cpu.commit.committedInstType_0::SimdMult            0      0.00%     88.80% # Class of committed instruction (Count)
system.cpu.commit.committedInstType_0::SimdMultAcc            0      0.00%     88.80% # Class of committed instruction (Count)
system.cpu.commit.committedInstType_0::SimdShift      1111803      0.07%     88.87% # Class of committed instruction (Count)
system.cpu.commit.committedInstType_0::SimdShiftAcc            0      0.00%     88.87% # Class of committed instruction (Count)
system.cpu.commit.committedInstType_0::SimdDiv            0      0.00%     88.87% # Class of committed instruction (Count)
system.cpu.commit.committedInstType_0::SimdSqrt            0      0.00%     88.87% # Class of committed instruction (Count)
system.cpu.commit.committedInstType_0::SimdFloatAdd       818086      0.05%     88.92% # Class of committed instruction (Count)
system.cpu.commit.committedInstType_0::SimdFloatAlu            0      0.00%     88.92% # Class of committed instruction (Count)
system.cpu.commit.committedInstType_0::SimdFloatCmp            0      0.00%     88.92% # Class of committed instruction (Count)
system.cpu.commit.committedInstType_0::SimdFloatCvt       788139      0.05%     88.96% # Class of committed instruction (Count)
system.cpu.commit.committedInstType_0::SimdFloatDiv        57884      0.00%     88.97% # Class of committed instruction (Count)
system.cpu.commit.committedInstType_0::SimdFloatMisc            0      0.00%     88.97% # Class of committed instruction (Count)
system.cpu.commit.committedInstType_0::SimdFloatMult       657899      0.04%     89.00% # Class of committed instruction (Count)
system.cpu.commit.committedInstType_0::SimdFloatMultAcc            0      0.00%     89.00% # Class of committed instruction (Count)
system.cpu.commit.committedInstType_0::SimdFloatSqrt            2      0.00%     89.00% # Class of committed instruction (Count)
system.cpu.commit.committedInstType_0::SimdReduceAdd            0      0.00%     89.00% # Class of committed instruction (Count)
system.cpu.commit.committedInstType_0::SimdReduceAlu            0      0.00%     89.00% # Class of committed instruction (Count)
system.cpu.commit.committedInstType_0::SimdReduceCmp            0      0.00%     89.00% # Class of committed instruction (Count)
system.cpu.commit.committedInstType_0::SimdFloatReduceAdd            0      0.00%     89.00% # Class of committed instruction (Count)
system.cpu.commit.committedInstType_0::SimdFloatReduceCmp            0      0.00%     89.00% # Class of committed instruction (Count)
system.cpu.commit.committedInstType_0::SimdAes            0      0.00%     89.00% # Class of committed instruction (Count)
system.cpu.commit.committedInstType_0::SimdAesMix            0      0.00%     89.00% # Class of committed instruction (Count)
system.cpu.commit.committedInstType_0::SimdSha1Hash            0      0.00%     89.00% # Class of committed instruction (Count)
system.cpu.commit.committedInstType_0::SimdSha1Hash2            0      0.00%     89.00% # Class of committed instruction (Count)
system.cpu.commit.committedInstType_0::SimdSha256Hash            0      0.00%     89.00% # Class of committed instruction (Count)
system.cpu.commit.committedInstType_0::SimdSha256Hash2            0      0.00%     89.00% # Class of committed instruction (Count)
system.cpu.commit.committedInstType_0::SimdShaSigma2            0      0.00%     89.00% # Class of committed instruction (Count)
system.cpu.commit.committedInstType_0::SimdShaSigma3            0      0.00%     89.00% # Class of committed instruction (Count)
system.cpu.commit.committedInstType_0::SimdPredAlu            0      0.00%     89.00% # Class of committed instruction (Count)
system.cpu.commit.committedInstType_0::MemRead     87934987      5.16%     94.16% # Class of committed instruction (Count)
system.cpu.commit.committedInstType_0::MemWrite     35040620      2.06%     96.22% # Class of committed instruction (Count)
system.cpu.commit.committedInstType_0::FloatMemRead      3732770      0.22%     96.44% # Class of committed instruction (Count)
system.cpu.commit.committedInstType_0::FloatMemWrite     60774649      3.56%    100.00% # Class of committed instruction (Count)
system.cpu.commit.committedInstType_0::IprAccess            0      0.00%    100.00% # Class of committed instruction (Count)
system.cpu.commit.committedInstType_0::InstPrefetch            0      0.00%    100.00% # Class of committed instruction (Count)
system.cpu.commit.committedInstType_0::total   1704950797                       # Class of committed instruction (Count)
system.cpu.commit.commitEligibleSamples     106238507                       # number cycles where commit BW limit reached (Cycle)
system.cpu.dcache.demandHits::cpu.data      170260216                       # number of demand (read+write) hits (Count)
system.cpu.dcache.demandHits::total         170260216                       # number of demand (read+write) hits (Count)
system.cpu.dcache.overallHits::cpu.data     170260216                       # number of overall hits (Count)
system.cpu.dcache.overallHits::total        170260216                       # number of overall hits (Count)
system.cpu.dcache.demandMisses::cpu.data      8984802                       # number of demand (read+write) misses (Count)
system.cpu.dcache.demandMisses::total         8984802                       # number of demand (read+write) misses (Count)
system.cpu.dcache.overallMisses::cpu.data      8984802                       # number of overall misses (Count)
system.cpu.dcache.overallMisses::total        8984802                       # number of overall misses (Count)
system.cpu.dcache.demandMissLatency::cpu.data 537797999708                       # number of demand (read+write) miss ticks (Tick)
system.cpu.dcache.demandMissLatency::total 537797999708                       # number of demand (read+write) miss ticks (Tick)
system.cpu.dcache.overallMissLatency::cpu.data 537797999708                       # number of overall miss ticks (Tick)
system.cpu.dcache.overallMissLatency::total 537797999708                       # number of overall miss ticks (Tick)
system.cpu.dcache.demandAccesses::cpu.data    179245018                       # number of demand (read+write) accesses (Count)
system.cpu.dcache.demandAccesses::total     179245018                       # number of demand (read+write) accesses (Count)
system.cpu.dcache.overallAccesses::cpu.data    179245018                       # number of overall (read+write) accesses (Count)
system.cpu.dcache.overallAccesses::total    179245018                       # number of overall (read+write) accesses (Count)
system.cpu.dcache.demandMissRate::cpu.data     0.050126                       # miss rate for demand accesses (Ratio)
system.cpu.dcache.demandMissRate::total      0.050126                       # miss rate for demand accesses (Ratio)
system.cpu.dcache.overallMissRate::cpu.data     0.050126                       # miss rate for overall accesses (Ratio)
system.cpu.dcache.overallMissRate::total     0.050126                       # miss rate for overall accesses (Ratio)
system.cpu.dcache.demandAvgMissLatency::cpu.data 59856.410827                       # average overall miss latency in ticks ((Tick/Count))
system.cpu.dcache.demandAvgMissLatency::total 59856.410827                       # average overall miss latency in ticks ((Tick/Count))
system.cpu.dcache.overallAvgMissLatency::cpu.data 59856.410827                       # average overall miss latency ((Tick/Count))
system.cpu.dcache.overallAvgMissLatency::total 59856.410827                       # average overall miss latency ((Tick/Count))
system.cpu.dcache.blockedCycles::no_mshrs       962444                       # number of cycles access was blocked (Cycle)
system.cpu.dcache.blockedCycles::no_targets        10162                       # number of cycles access was blocked (Cycle)
system.cpu.dcache.blockedCauses::no_mshrs        20600                       # number of times access was blocked (Count)
system.cpu.dcache.blockedCauses::no_targets           89                       # number of times access was blocked (Count)
system.cpu.dcache.avgBlocked::no_mshrs      46.720583                       # average number of cycles each access was blocked ((Cycle/Count))
system.cpu.dcache.avgBlocked::no_targets   114.179775                       # average number of cycles each access was blocked ((Cycle/Count))
system.cpu.dcache.writebacks::writebacks      7806212                       # number of writebacks (Count)
system.cpu.dcache.writebacks::total           7806212                       # number of writebacks (Count)
system.cpu.dcache.demandMshrHits::cpu.data       847281                       # number of demand (read+write) MSHR hits (Count)
system.cpu.dcache.demandMshrHits::total        847281                       # number of demand (read+write) MSHR hits (Count)
system.cpu.dcache.overallMshrHits::cpu.data       847281                       # number of overall MSHR hits (Count)
system.cpu.dcache.overallMshrHits::total       847281                       # number of overall MSHR hits (Count)
system.cpu.dcache.demandMshrMisses::cpu.data      8137521                       # number of demand (read+write) MSHR misses (Count)
system.cpu.dcache.demandMshrMisses::total      8137521                       # number of demand (read+write) MSHR misses (Count)
system.cpu.dcache.overallMshrMisses::cpu.data      8137521                       # number of overall MSHR misses (Count)
system.cpu.dcache.overallMshrMisses::total      8137521                       # number of overall MSHR misses (Count)
system.cpu.dcache.demandMshrMissLatency::cpu.data 491796934293                       # number of demand (read+write) MSHR miss ticks (Tick)
system.cpu.dcache.demandMshrMissLatency::total 491796934293                       # number of demand (read+write) MSHR miss ticks (Tick)
system.cpu.dcache.overallMshrMissLatency::cpu.data 491796934293                       # number of overall MSHR miss ticks (Tick)
system.cpu.dcache.overallMshrMissLatency::total 491796934293                       # number of overall MSHR miss ticks (Tick)
system.cpu.dcache.demandMshrMissRate::cpu.data     0.045399                       # mshr miss ratio for demand accesses (Ratio)
system.cpu.dcache.demandMshrMissRate::total     0.045399                       # mshr miss ratio for demand accesses (Ratio)
system.cpu.dcache.overallMshrMissRate::cpu.data     0.045399                       # mshr miss ratio for overall accesses (Ratio)
system.cpu.dcache.overallMshrMissRate::total     0.045399                       # mshr miss ratio for overall accesses (Ratio)
system.cpu.dcache.demandAvgMshrMissLatency::cpu.data 60435.719219                       # average overall mshr miss latency ((Tick/Count))
system.cpu.dcache.demandAvgMshrMissLatency::total 60435.719219                       # average overall mshr miss latency ((Tick/Count))
system.cpu.dcache.overallAvgMshrMissLatency::cpu.data 60435.719219                       # average overall mshr miss latency ((Tick/Count))
system.cpu.dcache.overallAvgMshrMissLatency::total 60435.719219                       # average overall mshr miss latency ((Tick/Count))
system.cpu.dcache.replacements                8136950                       # number of replacements (Count)
system.cpu.dcache.LockedRMWReadReq.hits::cpu.data         1529                       # number of LockedRMWReadReq hits (Count)
system.cpu.dcache.LockedRMWReadReq.hits::total         1529                       # number of LockedRMWReadReq hits (Count)
system.cpu.dcache.LockedRMWReadReq.misses::cpu.data            1                       # number of LockedRMWReadReq misses (Count)
system.cpu.dcache.LockedRMWReadReq.misses::total            1                       # number of LockedRMWReadReq misses (Count)
system.cpu.dcache.LockedRMWReadReq.missLatency::cpu.data        51000                       # number of LockedRMWReadReq miss ticks (Tick)
system.cpu.dcache.LockedRMWReadReq.missLatency::total        51000                       # number of LockedRMWReadReq miss ticks (Tick)
system.cpu.dcache.LockedRMWReadReq.accesses::cpu.data         1530                       # number of LockedRMWReadReq accesses(hits+misses) (Count)
system.cpu.dcache.LockedRMWReadReq.accesses::total         1530                       # number of LockedRMWReadReq accesses(hits+misses) (Count)
system.cpu.dcache.LockedRMWReadReq.missRate::cpu.data     0.000654                       # miss rate for LockedRMWReadReq accesses (Ratio)
system.cpu.dcache.LockedRMWReadReq.missRate::total     0.000654                       # miss rate for LockedRMWReadReq accesses (Ratio)
system.cpu.dcache.LockedRMWReadReq.avgMissLatency::cpu.data        51000                       # average LockedRMWReadReq miss latency ((Tick/Count))
system.cpu.dcache.LockedRMWReadReq.avgMissLatency::total        51000                       # average LockedRMWReadReq miss latency ((Tick/Count))
system.cpu.dcache.LockedRMWReadReq.mshrMisses::cpu.data            1                       # number of LockedRMWReadReq MSHR misses (Count)
system.cpu.dcache.LockedRMWReadReq.mshrMisses::total            1                       # number of LockedRMWReadReq MSHR misses (Count)
system.cpu.dcache.LockedRMWReadReq.mshrMissLatency::cpu.data      4690500                       # number of LockedRMWReadReq MSHR miss ticks (Tick)
system.cpu.dcache.LockedRMWReadReq.mshrMissLatency::total      4690500                       # number of LockedRMWReadReq MSHR miss ticks (Tick)
system.cpu.dcache.LockedRMWReadReq.mshrMissRate::cpu.data     0.000654                       # mshr miss rate for LockedRMWReadReq accesses (Ratio)
system.cpu.dcache.LockedRMWReadReq.mshrMissRate::total     0.000654                       # mshr miss rate for LockedRMWReadReq accesses (Ratio)
system.cpu.dcache.LockedRMWReadReq.avgMshrMissLatency::cpu.data      4690500                       # average LockedRMWReadReq mshr miss latency ((Tick/Count))
system.cpu.dcache.LockedRMWReadReq.avgMshrMissLatency::total      4690500                       # average LockedRMWReadReq mshr miss latency ((Tick/Count))
system.cpu.dcache.LockedRMWWriteReq.hits::cpu.data         1530                       # number of LockedRMWWriteReq hits (Count)
system.cpu.dcache.LockedRMWWriteReq.hits::total         1530                       # number of LockedRMWWriteReq hits (Count)
system.cpu.dcache.LockedRMWWriteReq.accesses::cpu.data         1530                       # number of LockedRMWWriteReq accesses(hits+misses) (Count)
system.cpu.dcache.LockedRMWWriteReq.accesses::total         1530                       # number of LockedRMWWriteReq accesses(hits+misses) (Count)
system.cpu.dcache.ReadReq.hits::cpu.data     82195796                       # number of ReadReq hits (Count)
system.cpu.dcache.ReadReq.hits::total        82195796                       # number of ReadReq hits (Count)
system.cpu.dcache.ReadReq.misses::cpu.data      1224890                       # number of ReadReq misses (Count)
system.cpu.dcache.ReadReq.misses::total       1224890                       # number of ReadReq misses (Count)
system.cpu.dcache.ReadReq.missLatency::cpu.data  62787532500                       # number of ReadReq miss ticks (Tick)
system.cpu.dcache.ReadReq.missLatency::total  62787532500                       # number of ReadReq miss ticks (Tick)
system.cpu.dcache.ReadReq.accesses::cpu.data     83420686                       # number of ReadReq accesses(hits+misses) (Count)
system.cpu.dcache.ReadReq.accesses::total     83420686                       # number of ReadReq accesses(hits+misses) (Count)
system.cpu.dcache.ReadReq.missRate::cpu.data     0.014683                       # miss rate for ReadReq accesses (Ratio)
system.cpu.dcache.ReadReq.missRate::total     0.014683                       # miss rate for ReadReq accesses (Ratio)
system.cpu.dcache.ReadReq.avgMissLatency::cpu.data 51259.731486                       # average ReadReq miss latency ((Tick/Count))
system.cpu.dcache.ReadReq.avgMissLatency::total 51259.731486                       # average ReadReq miss latency ((Tick/Count))
system.cpu.dcache.ReadReq.mshrHits::cpu.data       844374                       # number of ReadReq MSHR hits (Count)
system.cpu.dcache.ReadReq.mshrHits::total       844374                       # number of ReadReq MSHR hits (Count)
system.cpu.dcache.ReadReq.mshrMisses::cpu.data       380516                       # number of ReadReq MSHR misses (Count)
system.cpu.dcache.ReadReq.mshrMisses::total       380516                       # number of ReadReq MSHR misses (Count)
system.cpu.dcache.ReadReq.mshrMissLatency::cpu.data  24688677000                       # number of ReadReq MSHR miss ticks (Tick)
system.cpu.dcache.ReadReq.mshrMissLatency::total  24688677000                       # number of ReadReq MSHR miss ticks (Tick)
system.cpu.dcache.ReadReq.mshrMissRate::cpu.data     0.004561                       # mshr miss rate for ReadReq accesses (Ratio)
system.cpu.dcache.ReadReq.mshrMissRate::total     0.004561                       # mshr miss rate for ReadReq accesses (Ratio)
system.cpu.dcache.ReadReq.avgMshrMissLatency::cpu.data 64882.099570                       # average ReadReq mshr miss latency ((Tick/Count))
system.cpu.dcache.ReadReq.avgMshrMissLatency::total 64882.099570                       # average ReadReq mshr miss latency ((Tick/Count))
system.cpu.dcache.WriteReq.hits::cpu.data     88064420                       # number of WriteReq hits (Count)
system.cpu.dcache.WriteReq.hits::total       88064420                       # number of WriteReq hits (Count)
system.cpu.dcache.WriteReq.misses::cpu.data      7759912                       # number of WriteReq misses (Count)
system.cpu.dcache.WriteReq.misses::total      7759912                       # number of WriteReq misses (Count)
system.cpu.dcache.WriteReq.missLatency::cpu.data 475010467208                       # number of WriteReq miss ticks (Tick)
system.cpu.dcache.WriteReq.missLatency::total 475010467208                       # number of WriteReq miss ticks (Tick)
system.cpu.dcache.WriteReq.accesses::cpu.data     95824332                       # number of WriteReq accesses(hits+misses) (Count)
system.cpu.dcache.WriteReq.accesses::total     95824332                       # number of WriteReq accesses(hits+misses) (Count)
system.cpu.dcache.WriteReq.missRate::cpu.data     0.080981                       # miss rate for WriteReq accesses (Ratio)
system.cpu.dcache.WriteReq.missRate::total     0.080981                       # miss rate for WriteReq accesses (Ratio)
system.cpu.dcache.WriteReq.avgMissLatency::cpu.data 61213.383246                       # average WriteReq miss latency ((Tick/Count))
system.cpu.dcache.WriteReq.avgMissLatency::total 61213.383246                       # average WriteReq miss latency ((Tick/Count))
system.cpu.dcache.WriteReq.mshrHits::cpu.data         2907                       # number of WriteReq MSHR hits (Count)
system.cpu.dcache.WriteReq.mshrHits::total         2907                       # number of WriteReq MSHR hits (Count)
system.cpu.dcache.WriteReq.mshrMisses::cpu.data      7757005                       # number of WriteReq MSHR misses (Count)
system.cpu.dcache.WriteReq.mshrMisses::total      7757005                       # number of WriteReq MSHR misses (Count)
system.cpu.dcache.WriteReq.mshrMissLatency::cpu.data 467108257293                       # number of WriteReq MSHR miss ticks (Tick)
system.cpu.dcache.WriteReq.mshrMissLatency::total 467108257293                       # number of WriteReq MSHR miss ticks (Tick)
system.cpu.dcache.WriteReq.mshrMissRate::cpu.data     0.080950                       # mshr miss rate for WriteReq accesses (Ratio)
system.cpu.dcache.WriteReq.mshrMissRate::total     0.080950                       # mshr miss rate for WriteReq accesses (Ratio)
system.cpu.dcache.WriteReq.avgMshrMissLatency::cpu.data 60217.604255                       # average WriteReq mshr miss latency ((Tick/Count))
system.cpu.dcache.WriteReq.avgMshrMissLatency::total 60217.604255                       # average WriteReq mshr miss latency ((Tick/Count))
system.cpu.dcache.power_state.pwrStateResidencyTicks::UNDEFINED 612077200500                       # Cumulative time (in ticks) in various power states (Tick)
system.cpu.dcache.tags.tagsInUse           511.977017                       # Average ticks per tags in use ((Tick/Count))
system.cpu.dcache.tags.totalRefs            178400824                       # Total number of references to valid blocks. (Count)
system.cpu.dcache.tags.sampledRefs            8137462                       # Sample count of references to valid blocks. (Count)
system.cpu.dcache.tags.avgRefs              21.923399                       # Average number of references to valid blocks. ((Count/Count))
system.cpu.dcache.tags.warmupTick              148000                       # The tick when the warmup percentage was hit. (Tick)
system.cpu.dcache.tags.occupancies::cpu.data   511.977017                       # Average occupied blocks per tick, per requestor ((Count/Tick))
system.cpu.dcache.tags.avgOccs::cpu.data     0.999955                       # Average percentage of cache occupancy ((Ratio/Tick))
system.cpu.dcache.tags.avgOccs::total        0.999955                       # Average percentage of cache occupancy ((Ratio/Tick))
system.cpu.dcache.tags.occupanciesTaskId::1024          512                       # Occupied blocks per task id (Count)
system.cpu.dcache.tags.ageTaskId_1024::0           23                       # Occupied blocks per task id, per block age (Count)
system.cpu.dcache.tags.ageTaskId_1024::1          195                       # Occupied blocks per task id, per block age (Count)
system.cpu.dcache.tags.ageTaskId_1024::2          271                       # Occupied blocks per task id, per block age (Count)
system.cpu.dcache.tags.ageTaskId_1024::4           23                       # Occupied blocks per task id, per block age (Count)
system.cpu.dcache.tags.ratioOccsTaskId::1024            1                       # Ratio of occupied blocks and all blocks, per task id (Ratio)
system.cpu.dcache.tags.tagAccesses         1442122086                       # Number of tag accesses (Count)
system.cpu.dcache.tags.dataAccesses        1442122086                       # Number of data accesses (Count)
system.cpu.dcache.tags.power_state.pwrStateResidencyTicks::UNDEFINED 612077200500                       # Cumulative time (in ticks) in various power states (Tick)
system.cpu.decode.idleCycles                105094194                       # Number of cycles decode is idle (Cycle)
system.cpu.decode.blockedCycles             837969947                       # Number of cycles decode is blocked (Cycle)
system.cpu.decode.runCycles                 249022639                       # Number of cycles decode is running (Cycle)
system.cpu.decode.unblockCycles              23926989                       # Number of cycles decode is unblocking (Cycle)
system.cpu.decode.squashCycles                 862292                       # Number of cycles decode is squashing (Cycle)
system.cpu.decode.branchResolved             80748625                       # Number of times decode resolved a branch (Count)
system.cpu.decode.branchMispred                 63323                       # Number of times decode detected a branch misprediction (Count)
system.cpu.decode.decodedInsts             1752934383                       # Number of instructions handled by decode (Count)
system.cpu.decode.squashedInsts                164732                       # Number of squashed instructions handled by decode (Count)
system.cpu.dtb_walker_cache.blockedCycles::no_mshrs            0                       # number of cycles access was blocked (Cycle)
system.cpu.dtb_walker_cache.blockedCycles::no_targets            0                       # number of cycles access was blocked (Cycle)
system.cpu.dtb_walker_cache.blockedCauses::no_mshrs            0                       # number of times access was blocked (Count)
system.cpu.dtb_walker_cache.blockedCauses::no_targets            0                       # number of times access was blocked (Count)
system.cpu.dtb_walker_cache.avgBlocked::no_mshrs          nan                       # average number of cycles each access was blocked ((Cycle/Count))
system.cpu.dtb_walker_cache.avgBlocked::no_targets          nan                       # average number of cycles each access was blocked ((Cycle/Count))
system.cpu.dtb_walker_cache.replacements            0                       # number of replacements (Count)
system.cpu.dtb_walker_cache.power_state.pwrStateResidencyTicks::UNDEFINED 612077200500                       # Cumulative time (in ticks) in various power states (Tick)
system.cpu.dtb_walker_cache.tags.tagsInUse            0                       # Average ticks per tags in use ((Tick/Count))
system.cpu.dtb_walker_cache.tags.totalRefs            0                       # Total number of references to valid blocks. (Count)
system.cpu.dtb_walker_cache.tags.sampledRefs            0                       # Sample count of references to valid blocks. (Count)
system.cpu.dtb_walker_cache.tags.avgRefs          nan                       # Average number of references to valid blocks. ((Count/Count))
system.cpu.dtb_walker_cache.tags.warmupTick            0                       # The tick when the warmup percentage was hit. (Tick)
system.cpu.dtb_walker_cache.tags.tagAccesses            0                       # Number of tag accesses (Count)
system.cpu.dtb_walker_cache.tags.dataAccesses            0                       # Number of data accesses (Count)
system.cpu.dtb_walker_cache.tags.power_state.pwrStateResidencyTicks::UNDEFINED 612077200500                       # Cumulative time (in ticks) in various power states (Tick)
system.cpu.fetch.icacheStallCycles          127679298                       # Number of cycles fetch is stalled on an Icache miss (Cycle)
system.cpu.fetch.insts                     1037686685                       # Number of instructions fetch has processed (Count)
system.cpu.fetch.branches                   170621082                       # Number of branches that fetch encountered (Count)
system.cpu.fetch.predictedBranches           85975233                       # Number of branches that fetch has predicted taken (Count)
system.cpu.fetch.cycles                    1088256211                       # Number of cycles fetch has run and was not squashing or blocked (Cycle)
system.cpu.fetch.squashCycles                 1849736                       # Number of cycles fetch has spent squashing (Cycle)
system.cpu.fetch.miscStallCycles                 2166                       # Number of cycles fetch has spent waiting on interrupts, or bad addresses, or out of MSHRs (Cycle)
system.cpu.fetch.pendingTrapStallCycles         13084                       # Number of stall cycles due to pending traps (Cycle)
system.cpu.fetch.icacheWaitRetryStallCycles          434                       # Number of stall cycles due to full MSHR (Cycle)
system.cpu.fetch.cacheLines                 125041954                       # Number of cache lines fetched (Count)
system.cpu.fetch.icacheSquashes                459132                       # Number of outstanding Icache misses that were squashed (Count)
system.cpu.fetch.nisnDist::samples         1216876061                       # Number of instructions fetched each cycle (Total) (Count)
system.cpu.fetch.nisnDist::mean              1.452670                       # Number of instructions fetched each cycle (Total) (Count)
system.cpu.fetch.nisnDist::stdev             2.827843                       # Number of instructions fetched each cycle (Total) (Count)
system.cpu.fetch.nisnDist::underflows               0      0.00%      0.00% # Number of instructions fetched each cycle (Total) (Count)
system.cpu.fetch.nisnDist::0                918427248     75.47%     75.47% # Number of instructions fetched each cycle (Total) (Count)
system.cpu.fetch.nisnDist::1                 10230877      0.84%     76.31% # Number of instructions fetched each cycle (Total) (Count)
system.cpu.fetch.nisnDist::2                 39723736      3.26%     79.58% # Number of instructions fetched each cycle (Total) (Count)
system.cpu.fetch.nisnDist::3                  7596780      0.62%     80.20% # Number of instructions fetched each cycle (Total) (Count)
system.cpu.fetch.nisnDist::4                 54064314      4.44%     84.65% # Number of instructions fetched each cycle (Total) (Count)
system.cpu.fetch.nisnDist::5                  8240134      0.68%     85.32% # Number of instructions fetched each cycle (Total) (Count)
system.cpu.fetch.nisnDist::6                 12344746      1.01%     86.34% # Number of instructions fetched each cycle (Total) (Count)
system.cpu.fetch.nisnDist::7                  6261803      0.51%     86.85% # Number of instructions fetched each cycle (Total) (Count)
system.cpu.fetch.nisnDist::8                159986423     13.15%    100.00% # Number of instructions fetched each cycle (Total) (Count)
system.cpu.fetch.nisnDist::overflows                0      0.00%    100.00% # Number of instructions fetched each cycle (Total) (Count)
system.cpu.fetch.nisnDist::min_value                0                       # Number of instructions fetched each cycle (Total) (Count)
system.cpu.fetch.nisnDist::max_value                8                       # Number of instructions fetched each cycle (Total) (Count)
system.cpu.fetch.nisnDist::total           1216876061                       # Number of instructions fetched each cycle (Total) (Count)
system.cpu.fetch.branchRate                  0.139379                       # Number of branch fetches per cycle (Ratio)
system.cpu.fetch.rate                        0.847676                       # Number of inst fetches per cycle ((Count/Cycle))
system.cpu.icache.demandHits::cpu.inst      124937069                       # number of demand (read+write) hits (Count)
system.cpu.icache.demandHits::total         124937069                       # number of demand (read+write) hits (Count)
system.cpu.icache.overallHits::cpu.inst     124937069                       # number of overall hits (Count)
system.cpu.icache.overallHits::total        124937069                       # number of overall hits (Count)
system.cpu.icache.demandMisses::cpu.inst       104882                       # number of demand (read+write) misses (Count)
system.cpu.icache.demandMisses::total          104882                       # number of demand (read+write) misses (Count)
system.cpu.icache.overallMisses::cpu.inst       104882                       # number of overall misses (Count)
system.cpu.icache.overallMisses::total         104882                       # number of overall misses (Count)
system.cpu.icache.demandMissLatency::cpu.inst   6333438996                       # number of demand (read+write) miss ticks (Tick)
system.cpu.icache.demandMissLatency::total   6333438996                       # number of demand (read+write) miss ticks (Tick)
system.cpu.icache.overallMissLatency::cpu.inst   6333438996                       # number of overall miss ticks (Tick)
system.cpu.icache.overallMissLatency::total   6333438996                       # number of overall miss ticks (Tick)
system.cpu.icache.demandAccesses::cpu.inst    125041951                       # number of demand (read+write) accesses (Count)
system.cpu.icache.demandAccesses::total     125041951                       # number of demand (read+write) accesses (Count)
system.cpu.icache.overallAccesses::cpu.inst    125041951                       # number of overall (read+write) accesses (Count)
system.cpu.icache.overallAccesses::total    125041951                       # number of overall (read+write) accesses (Count)
system.cpu.icache.demandMissRate::cpu.inst     0.000839                       # miss rate for demand accesses (Ratio)
system.cpu.icache.demandMissRate::total      0.000839                       # miss rate for demand accesses (Ratio)
system.cpu.icache.overallMissRate::cpu.inst     0.000839                       # miss rate for overall accesses (Ratio)
system.cpu.icache.overallMissRate::total     0.000839                       # miss rate for overall accesses (Ratio)
system.cpu.icache.demandAvgMissLatency::cpu.inst 60386.329361                       # average overall miss latency in ticks ((Tick/Count))
system.cpu.icache.demandAvgMissLatency::total 60386.329361                       # average overall miss latency in ticks ((Tick/Count))
system.cpu.icache.overallAvgMissLatency::cpu.inst 60386.329361                       # average overall miss latency ((Tick/Count))
system.cpu.icache.overallAvgMissLatency::total 60386.329361                       # average overall miss latency ((Tick/Count))
system.cpu.icache.blockedCycles::no_mshrs         5246                       # number of cycles access was blocked (Cycle)
system.cpu.icache.blockedCycles::no_targets            0                       # number of cycles access was blocked (Cycle)
system.cpu.icache.blockedCauses::no_mshrs           77                       # number of times access was blocked (Count)
system.cpu.icache.blockedCauses::no_targets            0                       # number of times access was blocked (Count)
system.cpu.icache.avgBlocked::no_mshrs      68.129870                       # average number of cycles each access was blocked ((Cycle/Count))
system.cpu.icache.avgBlocked::no_targets          nan                       # average number of cycles each access was blocked ((Cycle/Count))
system.cpu.icache.writebacks::writebacks        93769                       # number of writebacks (Count)
system.cpu.icache.writebacks::total             93769                       # number of writebacks (Count)
system.cpu.icache.demandMshrHits::cpu.inst        10539                       # number of demand (read+write) MSHR hits (Count)
system.cpu.icache.demandMshrHits::total         10539                       # number of demand (read+write) MSHR hits (Count)
system.cpu.icache.overallMshrHits::cpu.inst        10539                       # number of overall MSHR hits (Count)
system.cpu.icache.overallMshrHits::total        10539                       # number of overall MSHR hits (Count)
system.cpu.icache.demandMshrMisses::cpu.inst        94343                       # number of demand (read+write) MSHR misses (Count)
system.cpu.icache.demandMshrMisses::total        94343                       # number of demand (read+write) MSHR misses (Count)
system.cpu.icache.overallMshrMisses::cpu.inst        94343                       # number of overall MSHR misses (Count)
system.cpu.icache.overallMshrMisses::total        94343                       # number of overall MSHR misses (Count)
system.cpu.icache.demandMshrMissLatency::cpu.inst   5717582497                       # number of demand (read+write) MSHR miss ticks (Tick)
system.cpu.icache.demandMshrMissLatency::total   5717582497                       # number of demand (read+write) MSHR miss ticks (Tick)
system.cpu.icache.overallMshrMissLatency::cpu.inst   5717582497                       # number of overall MSHR miss ticks (Tick)
system.cpu.icache.overallMshrMissLatency::total   5717582497                       # number of overall MSHR miss ticks (Tick)
system.cpu.icache.demandMshrMissRate::cpu.inst     0.000754                       # mshr miss ratio for demand accesses (Ratio)
system.cpu.icache.demandMshrMissRate::total     0.000754                       # mshr miss ratio for demand accesses (Ratio)
system.cpu.icache.overallMshrMissRate::cpu.inst     0.000754                       # mshr miss ratio for overall accesses (Ratio)
system.cpu.icache.overallMshrMissRate::total     0.000754                       # mshr miss ratio for overall accesses (Ratio)
system.cpu.icache.demandAvgMshrMissLatency::cpu.inst 60604.204838                       # average overall mshr miss latency ((Tick/Count))
system.cpu.icache.demandAvgMshrMissLatency::total 60604.204838                       # average overall mshr miss latency ((Tick/Count))
system.cpu.icache.overallAvgMshrMissLatency::cpu.inst 60604.204838                       # average overall mshr miss latency ((Tick/Count))
system.cpu.icache.overallAvgMshrMissLatency::total 60604.204838                       # average overall mshr miss latency ((Tick/Count))
system.cpu.icache.replacements                  93769                       # number of replacements (Count)
system.cpu.icache.ReadReq.hits::cpu.inst    124937069                       # number of ReadReq hits (Count)
system.cpu.icache.ReadReq.hits::total       124937069                       # number of ReadReq hits (Count)
system.cpu.icache.ReadReq.misses::cpu.inst       104882                       # number of ReadReq misses (Count)
system.cpu.icache.ReadReq.misses::total        104882                       # number of ReadReq misses (Count)
system.cpu.icache.ReadReq.missLatency::cpu.inst   6333438996                       # number of ReadReq miss ticks (Tick)
system.cpu.icache.ReadReq.missLatency::total   6333438996                       # number of ReadReq miss ticks (Tick)
system.cpu.icache.ReadReq.accesses::cpu.inst    125041951                       # number of ReadReq accesses(hits+misses) (Count)
system.cpu.icache.ReadReq.accesses::total    125041951                       # number of ReadReq accesses(hits+misses) (Count)
system.cpu.icache.ReadReq.missRate::cpu.inst     0.000839                       # miss rate for ReadReq accesses (Ratio)
system.cpu.icache.ReadReq.missRate::total     0.000839                       # miss rate for ReadReq accesses (Ratio)
system.cpu.icache.ReadReq.avgMissLatency::cpu.inst 60386.329361                       # average ReadReq miss latency ((Tick/Count))
system.cpu.icache.ReadReq.avgMissLatency::total 60386.329361                       # average ReadReq miss latency ((Tick/Count))
system.cpu.icache.ReadReq.mshrHits::cpu.inst        10539                       # number of ReadReq MSHR hits (Count)
system.cpu.icache.ReadReq.mshrHits::total        10539                       # number of ReadReq MSHR hits (Count)
system.cpu.icache.ReadReq.mshrMisses::cpu.inst        94343                       # number of ReadReq MSHR misses (Count)
system.cpu.icache.ReadReq.mshrMisses::total        94343                       # number of ReadReq MSHR misses (Count)
system.cpu.icache.ReadReq.mshrMissLatency::cpu.inst   5717582497                       # number of ReadReq MSHR miss ticks (Tick)
system.cpu.icache.ReadReq.mshrMissLatency::total   5717582497                       # number of ReadReq MSHR miss ticks (Tick)
system.cpu.icache.ReadReq.mshrMissRate::cpu.inst     0.000754                       # mshr miss rate for ReadReq accesses (Ratio)
system.cpu.icache.ReadReq.mshrMissRate::total     0.000754                       # mshr miss rate for ReadReq accesses (Ratio)
system.cpu.icache.ReadReq.avgMshrMissLatency::cpu.inst 60604.204838                       # average ReadReq mshr miss latency ((Tick/Count))
system.cpu.icache.ReadReq.avgMshrMissLatency::total 60604.204838                       # average ReadReq mshr miss latency ((Tick/Count))
system.cpu.icache.power_state.pwrStateResidencyTicks::UNDEFINED 612077200500                       # Cumulative time (in ticks) in various power states (Tick)
system.cpu.icache.tags.tagsInUse           511.975291                       # Average ticks per tags in use ((Tick/Count))
system.cpu.icache.tags.totalRefs            125031412                       # Total number of references to valid blocks. (Count)
system.cpu.icache.tags.sampledRefs              94343                       # Sample count of references to valid blocks. (Count)
system.cpu.icache.tags.avgRefs            1325.285522                       # Average number of references to valid blocks. ((Count/Count))
system.cpu.icache.tags.warmupTick               77000                       # The tick when the warmup percentage was hit. (Tick)
system.cpu.icache.tags.occupancies::cpu.inst   511.975291                       # Average occupied blocks per tick, per requestor ((Count/Tick))
system.cpu.icache.tags.avgOccs::cpu.inst     0.999952                       # Average percentage of cache occupancy ((Ratio/Tick))
system.cpu.icache.tags.avgOccs::total        0.999952                       # Average percentage of cache occupancy ((Ratio/Tick))
system.cpu.icache.tags.occupanciesTaskId::1024          512                       # Occupied blocks per task id (Count)
system.cpu.icache.tags.ageTaskId_1024::4          512                       # Occupied blocks per task id, per block age (Count)
system.cpu.icache.tags.ratioOccsTaskId::1024            1                       # Ratio of occupied blocks and all blocks, per task id (Ratio)
system.cpu.icache.tags.tagAccesses         1000429951                       # Number of tag accesses (Count)
system.cpu.icache.tags.dataAccesses        1000429951                       # Number of data accesses (Count)
system.cpu.icache.tags.power_state.pwrStateResidencyTicks::UNDEFINED 612077200500                       # Cumulative time (in ticks) in various power states (Tick)
system.cpu.iew.idleCycles                           0                       # Number of cycles IEW is idle (Cycle)
system.cpu.iew.squashCycles                    862292                       # Number of cycles IEW is squashing (Cycle)
system.cpu.iew.blockCycles                   11965907                       # Number of cycles IEW is blocking (Cycle)
system.cpu.iew.unblockCycles                 38826342                       # Number of cycles IEW is unblocking (Cycle)
system.cpu.iew.dispatchedInsts             1742126658                       # Number of instructions dispatched to IQ (Count)
system.cpu.iew.dispSquashedInsts               101141                       # Number of squashed instructions skipped by dispatch (Count)
system.cpu.iew.dispLoadInsts                 92690070                       # Number of dispatched load instructions (Count)
system.cpu.iew.dispStoreInsts                98631670                       # Number of dispatched store instructions (Count)
system.cpu.iew.dispNonSpecInsts                  4582                       # Number of dispatched non-speculative instructions (Count)
system.cpu.iew.iqFullEvents                     72490                       # Number of times the IQ has become full, causing a stall (Count)
system.cpu.iew.lsqFullEvents                 38667994                       # Number of times the LSQ has become full, causing a stall (Count)
system.cpu.iew.memOrderViolationEvents           4837                       # Number of memory order violations (Count)
system.cpu.iew.predictedTakenIncorrect         636289                       # Number of branches that were predicted taken incorrectly (Count)
system.cpu.iew.predictedNotTakenIncorrect       129280                       # Number of branches that were predicted not taken incorrectly (Count)
system.cpu.iew.branchMispredicts               765569                       # Number of branch mispredicts detected at execute (Count)
system.cpu.iew.instsToCommit               1732574860                       # Cumulative count of insts sent to commit (Count)
system.cpu.iew.writebackCount              1730882683                       # Cumulative count of insts written-back (Count)
system.cpu.iew.producerInst                1238317497                       # Number of instructions producing a value (Count)
system.cpu.iew.consumerInst                1994161650                       # Number of instructions consuming a value (Count)
system.cpu.iew.wbRate                        1.413941                       # Insts written-back per cycle ((Count/Cycle))
system.cpu.iew.wbFanout                      0.620971                       # Average fanout of values written-back ((Count/Count))
system.cpu.interrupts.clk_domain.clock           8000                       # Clock period in ticks (Tick)
system.cpu.itb_walker_cache.blockedCycles::no_mshrs            0                       # number of cycles access was blocked (Cycle)
system.cpu.itb_walker_cache.blockedCycles::no_targets            0                       # number of cycles access was blocked (Cycle)
system.cpu.itb_walker_cache.blockedCauses::no_mshrs            0                       # number of times access was blocked (Count)
system.cpu.itb_walker_cache.blockedCauses::no_targets            0                       # number of times access was blocked (Count)
system.cpu.itb_walker_cache.avgBlocked::no_mshrs          nan                       # average number of cycles each access was blocked ((Cycle/Count))
system.cpu.itb_walker_cache.avgBlocked::no_targets          nan                       # average number of cycles each access was blocked ((Cycle/Count))
system.cpu.itb_walker_cache.replacements            0                       # number of replacements (Count)
system.cpu.itb_walker_cache.power_state.pwrStateResidencyTicks::UNDEFINED 612077200500                       # Cumulative time (in ticks) in various power states (Tick)
system.cpu.itb_walker_cache.tags.tagsInUse            0                       # Average ticks per tags in use ((Tick/Count))
system.cpu.itb_walker_cache.tags.totalRefs            0                       # Total number of references to valid blocks. (Count)
system.cpu.itb_walker_cache.tags.sampledRefs            0                       # Sample count of references to valid blocks. (Count)
system.cpu.itb_walker_cache.tags.avgRefs          nan                       # Average number of references to valid blocks. ((Count/Count))
system.cpu.itb_walker_cache.tags.warmupTick            0                       # The tick when the warmup percentage was hit. (Tick)
system.cpu.itb_walker_cache.tags.tagAccesses            0                       # Number of tag accesses (Count)
[...]
system.mem_ctrls.dram.bwTotal::writebacks    816232932                       # Total bandwidth to/from this memory ((Byte/Second))
system.mem_ctrls.dram.bwTotal::cpu.inst       9857998                       # Total bandwidth to/from this memory ((Byte/Second))
system.mem_ctrls.dram.bwTotal::cpu.data     850869086                       # Total bandwidth to/from this memory ((Byte/Second))
system.mem_ctrls.dram.bwTotal::total       1676960016                       # Total bandwidth to/from this memory ((Byte/Second))
system.mem_ctrls.dram.readBursts              8216835                       # Number of DRAM read bursts (Count)
system.mem_ctrls.dram.writeBursts             7899146                       # Number of DRAM write bursts (Count)
system.mem_ctrls.dram.perBankRdBursts::0       516448                       # Per bank write bursts (Count)
system.mem_ctrls.dram.perBankRdBursts::1       517297                       # Per bank write bursts (Count)
system.mem_ctrls.dram.perBankRdBursts::2       510939                       # Per bank write bursts (Count)
system.mem_ctrls.dram.perBankRdBursts::3       516028                       # Per bank write bursts (Count)
system.mem_ctrls.dram.perBankRdBursts::4       516486                       # Per bank write bursts (Count)
system.mem_ctrls.dram.perBankRdBursts::5       517623                       # Per bank write bursts (Count)
system.mem_ctrls.dram.perBankRdBursts::6       514362                       # Per bank write bursts (Count)
system.mem_ctrls.dram.perBankRdBursts::7       511763                       # Per bank write bursts (Count)
system.mem_ctrls.dram.perBankRdBursts::8       517995                       # Per bank write bursts (Count)
system.mem_ctrls.dram.perBankRdBursts::9       513787                       # Per bank write bursts (Count)
system.mem_ctrls.dram.perBankRdBursts::10       509472                       # Per bank write bursts (Count)
system.mem_ctrls.dram.perBankRdBursts::11       506025                       # Per bank write bursts (Count)
system.mem_ctrls.dram.perBankRdBursts::12       511038                       # Per bank write bursts (Count)
system.mem_ctrls.dram.perBankRdBursts::13       513829                       # Per bank write bursts (Count)
system.mem_ctrls.dram.perBankRdBursts::14       511502                       # Per bank write bursts (Count)
system.mem_ctrls.dram.perBankRdBursts::15       512241                       # Per bank write bursts (Count)
system.mem_ctrls.dram.perBankWrBursts::0       493980                       # Per bank write bursts (Count)
system.mem_ctrls.dram.perBankWrBursts::1       496129                       # Per bank write bursts (Count)
system.mem_ctrls.dram.perBankWrBursts::2       490514                       # Per bank write bursts (Count)
system.mem_ctrls.dram.perBankWrBursts::3       497457                       # Per bank write bursts (Count)
system.mem_ctrls.dram.perBankWrBursts::4       496844                       # Per bank write bursts (Count)
system.mem_ctrls.dram.perBankWrBursts::5       498013                       # Per bank write bursts (Count)
system.mem_ctrls.dram.perBankWrBursts::6       493746                       # Per bank write bursts (Count)
system.mem_ctrls.dram.perBankWrBursts::7       490931                       # Per bank write bursts (Count)
system.mem_ctrls.dram.perBankWrBursts::8       496992                       # Per bank write bursts (Count)
system.mem_ctrls.dram.perBankWrBursts::9       494435                       # Per bank write bursts (Count)
system.mem_ctrls.dram.perBankWrBursts::10       488676                       # Per bank write bursts (Count)
system.mem_ctrls.dram.perBankWrBursts::11       486305                       # Per bank write bursts (Count)
system.mem_ctrls.dram.perBankWrBursts::12       493539                       # Per bank write bursts (Count)
system.mem_ctrls.dram.perBankWrBursts::13       495413                       # Per bank write bursts (Count)
system.mem_ctrls.dram.perBankWrBursts::14       494223                       # Per bank write bursts (Count)
system.mem_ctrls.dram.perBankWrBursts::15       491949                       # Per bank write bursts (Count)
system.mem_ctrls.dram.totQLat             83954742500                       # Total ticks spent queuing (Tick)
system.mem_ctrls.dram.totBusLat           41084175000                       # Total ticks spent in databus transfers (Tick)
system.mem_ctrls.dram.totMemAccLat       238020398750                       # Total ticks spent from burst creation until serviced by the DRAM (Tick)
system.mem_ctrls.dram.avgQLat                10217.41                       # Average queueing delay per DRAM burst ((Tick/Count))
system.mem_ctrls.dram.avgBusLat               5000.00                       # Average bus latency per DRAM burst ((Tick/Count))
system.mem_ctrls.dram.avgMemAccLat           28967.41                       # Average memory access latency per DRAM burst ((Tick/Count))
system.mem_ctrls.dram.readRowHits             7514746                       # Number of row buffer hits during reads (Count)
system.mem_ctrls.dram.writeRowHits            7304036                       # Number of row buffer hits during writes (Count)
system.mem_ctrls.dram.readRowHitRate            91.46                       # Row buffer hit rate for reads (Ratio)
system.mem_ctrls.dram.writeRowHitRate           92.47                       # Row buffer hit rate for writes (Ratio)
system.mem_ctrls.dram.bytesPerActivate::samples      1297199                       # Bytes accessed per row activation (Byte)
system.mem_ctrls.dram.bytesPerActivate::mean   795.115309                       # Bytes accessed per row activation (Byte)
system.mem_ctrls.dram.bytesPerActivate::gmean   622.277880                       # Bytes accessed per row activation (Byte)
system.mem_ctrls.dram.bytesPerActivate::stdev   358.290534                       # Bytes accessed per row activation (Byte)
system.mem_ctrls.dram.bytesPerActivate::0-127       107360      8.28%      8.28% # Bytes accessed per row activation (Byte)
system.mem_ctrls.dram.bytesPerActivate::128-255        95511      7.36%     15.64% # Bytes accessed per row activation (Byte)
system.mem_ctrls.dram.bytesPerActivate::256-383        51193      3.95%     19.59% # Bytes accessed per row activation (Byte)
system.mem_ctrls.dram.bytesPerActivate::384-511        43179      3.33%     22.91% # Bytes accessed per row activation (Byte)
system.mem_ctrls.dram.bytesPerActivate::512-639        50459      3.89%     26.80% # Bytes accessed per row activation (Byte)
system.mem_ctrls.dram.bytesPerActivate::640-767        32459      2.50%     29.31% # Bytes accessed per row activation (Byte)
system.mem_ctrls.dram.bytesPerActivate::768-895        29494      2.27%     31.58% # Bytes accessed per row activation (Byte)
system.mem_ctrls.dram.bytesPerActivate::896-1023        32871      2.53%     34.11% # Bytes accessed per row activation (Byte)
system.mem_ctrls.dram.bytesPerActivate::1024-1151       854673     65.89%    100.00% # Bytes accessed per row activation (Byte)
system.mem_ctrls.dram.bytesPerActivate::total      1297199                       # Bytes accessed per row activation (Byte)
system.mem_ctrls.dram.bytesRead             525877440                       # Total bytes read (Byte)
system.mem_ctrls.dram.bytesWritten          505545344                       # Total bytes written (Byte)
system.mem_ctrls.dram.avgRdBW              859.168483                       # Average DRAM read bandwidth in MiBytes/s ((Byte/Second))
system.mem_ctrls.dram.avgWrBW              825.950294                       # Average DRAM write bandwidth in MiBytes/s ((Byte/Second))
system.mem_ctrls.dram.peakBW                 12800.00                       # Theoretical peak bandwidth in MiByte/s ((Byte/Second))
system.mem_ctrls.dram.busUtil                   13.16                       # Data bus utilization in percentage (Ratio)
system.mem_ctrls.dram.busUtilRead                6.71                       # Data bus utilization in percentage for reads (Ratio)
system.mem_ctrls.dram.busUtilWrite               6.45                       # Data bus utilization in percentage for writes (Ratio)
system.mem_ctrls.dram.pageHitRate               91.95                       # Row buffer hit rate, read and write combined (Ratio)
system.mem_ctrls.dram.power_state.pwrStateResidencyTicks::UNDEFINED 612077200500                       # Cumulative time (in ticks) in various power states (Tick)
system.mem_ctrls.dram.rank0.actEnergy      4706209620                       # Energy for activate commands per rank (pJ) (Joule)
system.mem_ctrls.dram.rank0.preEnergy      2501409735                       # Energy for precharge commands per rank (pJ) (Joule)
system.mem_ctrls.dram.rank0.readEnergy    29423554440                       # Energy for read commands per rank (pJ) (Joule)
system.mem_ctrls.dram.rank0.writeEnergy   20658745080                       # Energy for write commands per rank (pJ) (Joule)
system.mem_ctrls.dram.rank0.refreshEnergy 48316850400.000008                       # Energy for refresh commands per rank (pJ) (Joule)
system.mem_ctrls.dram.rank0.actBackEnergy 193187184450                       # Energy for active background per rank (pJ) (Joule)
system.mem_ctrls.dram.rank0.preBackEnergy  72353760960                       # Energy for precharge background per rank (pJ) (Joule)
system.mem_ctrls.dram.rank0.actPowerDownEnergy            0                       # Energy for active power-down per rank (pJ) (Joule)
system.mem_ctrls.dram.rank0.prePowerDownEnergy            0                       # Energy for precharge power-down per rank (pJ) (Joule)
system.mem_ctrls.dram.rank0.selfRefreshEnergy            0                       # Energy for self refresh per rank (pJ) (Joule)
system.mem_ctrls.dram.rank0.totalEnergy  371147714685                       # Total energy per rank (pJ) (Joule)
system.mem_ctrls.dram.rank0.averagePower   606.374023                       # Core power per rank (mW) (Watt)
system.mem_ctrls.dram.rank0.totalIdleTime            0                       # Total Idle time Per DRAM Rank (Tick)
system.mem_ctrls.dram.rank0.pwrStateTime::IDLE 184108281000                       # Time in different power states (Tick)
system.mem_ctrls.dram.rank0.pwrStateTime::REF  20438428000                       # Time in different power states (Tick)
system.mem_ctrls.dram.rank0.pwrStateTime::SREF            0                       # Time in different power states (Tick)
system.mem_ctrls.dram.rank0.pwrStateTime::PRE_PDN            0                       # Time in different power states (Tick)
system.mem_ctrls.dram.rank0.pwrStateTime::ACT 407530491500                       # Time in different power states (Tick)
system.mem_ctrls.dram.rank0.pwrStateTime::ACT_PDN            0                       # Time in different power states (Tick)
system.mem_ctrls.dram.rank1.actEnergy      4555791240                       # Energy for activate commands per rank (pJ) (Joule)
system.mem_ctrls.dram.rank1.preEnergy      2421460470                       # Energy for precharge commands per rank (pJ) (Joule)
system.mem_ctrls.dram.rank1.readEnergy    29244647460                       # Energy for read commands per rank (pJ) (Joule)
system.mem_ctrls.dram.rank1.writeEnergy   20574797040                       # Energy for write commands per rank (pJ) (Joule)
system.mem_ctrls.dram.rank1.refreshEnergy 48316850400.000008                       # Energy for refresh commands per rank (pJ) (Joule)
system.mem_ctrls.dram.rank1.actBackEnergy 193128609540                       # Energy for active background per rank (pJ) (Joule)
system.mem_ctrls.dram.rank1.preBackEnergy  72403092480                       # Energy for precharge background per rank (pJ) (Joule)
system.mem_ctrls.dram.rank1.actPowerDownEnergy            0                       # Energy for active power-down per rank (pJ) (Joule)
system.mem_ctrls.dram.rank1.prePowerDownEnergy            0                       # Energy for precharge power-down per rank (pJ) (Joule)
system.mem_ctrls.dram.rank1.selfRefreshEnergy            0                       # Energy for self refresh per rank (pJ) (Joule)
system.mem_ctrls.dram.rank1.totalEnergy  370645248630                       # Total energy per rank (pJ) (Joule)
system.mem_ctrls.dram.rank1.averagePower   605.553104                       # Core power per rank (mW) (Watt)
system.mem_ctrls.dram.rank1.totalIdleTime            0                       # Total Idle time Per DRAM Rank (Tick)
system.mem_ctrls.dram.rank1.pwrStateTime::IDLE 184285988750                       # Time in different power states (Tick)
system.mem_ctrls.dram.rank1.pwrStateTime::REF  20438414250                       # Time in different power states (Tick)
system.mem_ctrls.dram.rank1.pwrStateTime::SREF            0                       # Time in different power states (Tick)
system.mem_ctrls.dram.rank1.pwrStateTime::PRE_PDN            0                       # Time in different power states (Tick)
system.mem_ctrls.dram.rank1.pwrStateTime::ACT 407352797500                       # Time in different power states (Tick)
system.mem_ctrls.dram.rank1.pwrStateTime::ACT_PDN            0                       # Time in different power states (Tick)
system.mem_ctrls.power_state.pwrStateResidencyTicks::UNDEFINED 612077200500                       # Cumulative time (in ticks) in various power states (Tick)
system.membus.transDist::ReadResp              474846                       # Transaction distribution (Count)
system.membus.transDist::WritebackDirty       7806212                       # Transaction distribution (Count)
system.membus.transDist::WritebackClean         93769                       # Transaction distribution (Count)
system.membus.transDist::CleanEvict            330738                       # Transaction distribution (Count)
system.membus.transDist::UpgradeReq                60                       # Transaction distribution (Count)
system.membus.transDist::ReadExReq            7756959                       # Transaction distribution (Count)
system.membus.transDist::ReadExResp           7756959                       # Transaction distribution (Count)
system.membus.transDist::ReadCleanReq           94343                       # Transaction distribution (Count)
system.membus.transDist::ReadSharedReq         380503                       # Transaction distribution (Count)
system.membus.pktCount_system.cpu.icache.mem_side_port::system.mem_ctrls.port       282391                       # Packet count per connected requestor and responder (Count)
system.membus.pktCount_system.cpu.icache.mem_side_port::total       282391                       # Packet count per connected requestor and responder (Count)
system.membus.pktCount_system.cpu.dcache.mem_side_port::system.mem_ctrls.port     24411934                       # Packet count per connected requestor and responder (Count)
system.membus.pktCount_system.cpu.dcache.mem_side_port::total     24411934                       # Packet count per connected requestor and responder (Count)
system.membus.pktCount::total                24694325                       # Packet count per connected requestor and responder (Count)
system.membus.pktSize_system.cpu.icache.mem_side_port::system.mem_ctrls.port     12035072                       # Cumulative packet size per connected requestor and responder (Byte)
system.membus.pktSize_system.cpu.icache.mem_side_port::total     12035072                       # Cumulative packet size per connected requestor and responder (Byte)
system.membus.pktSize_system.cpu.dcache.mem_side_port::system.mem_ctrls.port   1020395136                       # Cumulative packet size per connected requestor and responder (Byte)
system.membus.pktSize_system.cpu.dcache.mem_side_port::total   1020395136                       # Cumulative packet size per connected requestor and responder (Byte)
system.membus.pktSize::total               1032430208                       # Cumulative packet size per connected requestor and responder (Byte)
system.membus.snoops                               64                       # Total snoops (Count)
system.membus.snoopTraffic                       4096                       # Total snoop traffic (Byte)
system.membus.snoopFanout::samples            8231865                       # Request fanout histogram (Count)
system.membus.snoopFanout::mean              0.000060                       # Request fanout histogram (Count)
system.membus.snoopFanout::stdev             0.007762                       # Request fanout histogram (Count)
system.membus.snoopFanout::underflows               0      0.00%      0.00% # Request fanout histogram (Count)
system.membus.snoopFanout::0                  8231369     99.99%     99.99% # Request fanout histogram (Count)
system.membus.snoopFanout::1                      496      0.01%    100.00% # Request fanout histogram (Count)
system.membus.snoopFanout::2                        0      0.00%    100.00% # Request fanout histogram (Count)
system.membus.snoopFanout::3                        0      0.00%    100.00% # Request fanout histogram (Count)
system.membus.snoopFanout::4                        0      0.00%    100.00% # Request fanout histogram (Count)
system.membus.snoopFanout::overflows                0      0.00%    100.00% # Request fanout histogram (Count)
system.membus.snoopFanout::min_value                0                       # Request fanout histogram (Count)
system.membus.snoopFanout::max_value                1                       # Request fanout histogram (Count)
system.membus.snoopFanout::total              8231865                       # Request fanout histogram (Count)
system.membus.power_state.pwrStateResidencyTicks::UNDEFINED 612077200500                       # Cumulative time (in ticks) in various power states (Tick)
system.membus.reqLayer2.occupancy         49868532500                       # Layer occupancy (ticks) (Tick)
system.membus.reqLayer2.utilization               0.1                       # Layer utilization (Ratio)
system.membus.respLayer1.occupancy          499224000                       # Layer occupancy (ticks) (Tick)
system.membus.respLayer1.utilization              0.0                       # Layer utilization (Ratio)
system.membus.respLayer2.occupancy        42954838000                       # Layer occupancy (ticks) (Tick)
system.membus.respLayer2.utilization              0.1                       # Layer utilization (Ratio)
system.membus.snoop_filter.totRequests       16462584                       # Total number of requests made to the snoop filter. (Count)
system.membus.snoop_filter.hitSingleRequests      8230722                       # Number of requests hitting in the snoop filter with a single holder of the requested data. (Count)
system.membus.snoop_filter.hitMultiRequests          495                       # Number of requests hitting in the snoop filter with multiple (>1) holders of the requested data. (Count)
system.membus.snoop_filter.totSnoops                0                       # Total number of snoops made to the snoop filter. (Count)
system.membus.snoop_filter.hitSingleSnoops            0                       # Number of snoops hitting in the snoop filter with a single holder of the requested data. (Count)
system.membus.snoop_filter.hitMultiSnoops            0                       # Number of snoops hitting in the snoop filter with multiple (>1) holders of the requested data. (Count)
system.voltage_domain.voltage                       1                       # Voltage in Volts (Volt)
system.workload.inst.arm                            0                       # number of arm instructions executed (Count)
system.workload.inst.quiesce                        0                       # number of quiesce instructions executed (Count)

---------- End Simulation Statistics   ----------
