
---------- Begin Simulation Statistics ----------
simSeconds                                   1.179461                       # Number of seconds simulated (Second)
simTicks                                 1179460554000                       # Number of ticks simulated (Tick)
finalTick                                1179460554000                       # Number of ticks from beginning of simulation (restored from checkpoints and never reset) (Tick)
simFreq                                  1000000000000                       # The number of ticks per simulated second ((Tick/Second))
hostSeconds                                  11479.84                       # Real time elapsed on the host (Second)
hostTickRate                                102741882                       # The number of ticks simulated per host second (ticks/s) ((Tick/Second))
hostMemory                                    8772164                       # Number of bytes of host memory used (Byte)
simInsts                                   1000000001                       # Number of instructions simulated (Count)
simOps                                     1644467422                       # Number of ops (including micro ops) simulated (Count)
hostInstRate                                    87109                       # Simulator instruction rate (inst/s) ((Count/Second))
hostOpRate                                     143248                       # Simulator op (including micro ops) rate (op/s) ((Count/Second))
system.clk_domain.clock                          1000                       # Clock period in ticks (Tick)
system.cpu.numCycles                       2358921109                       # Number of cpu cycles simulated (Cycle)
system.cpu.numWorkItemsStarted                      0                       # Number of work items this cpu started (Count)
system.cpu.numWorkItemsCompleted                    0                       # Number of work items this cpu completed (Count)
system.cpu.instsAdded                      1662303406                       # Number of instructions added to the IQ (excludes non-spec) (Count)
system.cpu.nonSpecInstsAdded                      827                       # Number of non-speculative instructions added to the IQ (Count)
system.cpu.instsIssued                     1753566331                       # Number of instructions issued (Count)
system.cpu.squashedInstsIssued                 157080                       # Number of squashed instructions issued (Count)
system.cpu.squashedInstsExamined             17836673                       # Number of squashed instructions iterated over during squash; mainly for profiling (Count)
system.cpu.squashedOperandsExamined          23492412                       # Number of squashed operands that are examined and possibly removed from graph (Count)
system.cpu.squashedNonSpecRemoved                 343                       # Number of squashed non-spec instructions that were removed (Count)
system.cpu.numIssuedDist::samples          2358546092                       # Number of insts issued each cycle (Count)
system.cpu.numIssuedDist::mean               0.743495                       # Number of insts issued each cycle (Count)
system.cpu.numIssuedDist::stdev              1.667490                       # Number of insts issued each cycle (Count)
system.cpu.numIssuedDist::underflows                0      0.00%      0.00% # Number of insts issued each cycle (Count)
system.cpu.numIssuedDist::0                1816083731     77.00%     77.00% # Number of insts issued each cycle (Count)
system.cpu.numIssuedDist::1                 145036468      6.15%     83.15% # Number of insts issued each cycle (Count)
system.cpu.numIssuedDist::2                  97128522      4.12%     87.27% # Number of insts issued each cycle (Count)
system.cpu.numIssuedDist::3                  76659630      3.25%     90.52% # Number of insts issued each cycle (Count)
system.cpu.numIssuedDist::4                  77748843      3.30%     93.81% # Number of insts issued each cycle (Count)
system.cpu.numIssuedDist::5                  65362802      2.77%     96.59% # Number of insts issued each cycle (Count)
system.cpu.numIssuedDist::6                  36205441      1.54%     98.12% # Number of insts issued each cycle (Count)
system.cpu.numIssuedDist::7                  25313339      1.07%     99.19% # Number of insts issued each cycle (Count)
system.cpu.numIssuedDist::8                  19007316      0.81%    100.00% # Number of insts issued each cycle (Count)
system.cpu.numIssuedDist::overflows                 0      0.00%    100.00% # Number of insts issued each cycle (Count)
system.cpu.numIssuedDist::min_value                 0                       # Number of insts issued each cycle (Count)
system.cpu.numIssuedDist::max_value                 8                       # Number of insts issued each cycle (Count)
system.cpu.numIssuedDist::total            2358546092                       # Number of insts issued each cycle (Count)
system.cpu.statFuBusy::No_OpClass                   0      0.00%      0.00% # attempts to use FU when none available (Count)
system.cpu.statFuBusy::IntAlu                  778568      1.66%      1.66% # attempts to use FU when none available (Count)
system.cpu.statFuBusy::IntMult                      0      0.00%      1.66% # attempts to use FU when none available (Count)
system.cpu.statFuBusy::IntDiv                       0      0.00%      1.66% # attempts to use FU when none available (Count)
system.cpu.statFuBusy::FloatAdd                     6      0.00%      1.66% # attempts to use FU when none available (Count)
system.cpu.statFuBusy::FloatCmp                     0      0.00%      1.66% # attempts to use FU when none available (Count)
system.cpu.statFuBusy::FloatCvt                     1      0.00%      1.66% # attempts to use FU when none available (Count)
system.cpu.statFuBusy::FloatMult                    0      0.00%      1.66% # attempts to use FU when none available (Count)
system.cpu.statFuBusy::FloatMultAcc                 0      0.00%      1.66% # attempts to use FU when none available (Count)
system.cpu.statFuBusy::FloatDiv                     0      0.00%      1.66% # attempts to use FU when none available (Count)
system.cpu.statFuBusy::FloatMisc                    0      0.00%      1.66% # attempts to use FU when none available (Count)
system.cpu.statFuBusy::FloatSqrt                    0      0.00%      1.66% # attempts to use FU when none available (Count)
system.cpu.statFuBusy::SimdAdd                      0      0.00%      1.66% # attempts to use FU when none available (Count)
system.cpu.statFuBusy::SimdAddAcc                   0      0.00%      1.66% # attempts to use FU when none available (Count)
system.cpu.statFuBusy::SimdAlu                 327467      0.70%      2.37% # attempts to use FU when none available (Count)
system.cpu.statFuBusy::SimdCmp                      0      0.00%      2.37% # attempts to use FU when none available (Count)
system.cpu.statFuBusy::SimdCvt                      0      0.00%      2.37% # attempts to use FU when none available (Count)
system.cpu.statFuBusy::SimdMisc                     0      0.00%      2.37% # attempts to use FU when none available (Count)
system.cpu.statFuBusy::SimdMult                     0      0.00%      2.37% # attempts to use FU when none available (Count)
system.cpu.statFuBusy::SimdMultAcc                  0      0.00%      2.37% # attempts to use FU when none available (Count)
system.cpu.statFuBusy::SimdShift                    0      0.00%      2.37% # attempts to use FU when none available (Count)
system.cpu.statFuBusy::SimdShiftAcc                 0      0.00%      2.37% # attempts to use FU when none available (Count)
system.cpu.statFuBusy::SimdDiv                      0      0.00%      2.37% # attempts to use FU when none available (Count)
system.cpu.statFuBusy::SimdSqrt                     0      0.00%      2.37% # attempts to use FU when none available (Count)
system.cpu.statFuBusy::SimdFloatAdd           5282027     11.30%     13.66% # attempts to use FU when none available (Count)
system.cpu.statFuBusy::SimdFloatAlu                 0      0.00%     13.66% # attempts to use FU when none available (Count)
system.cpu.statFuBusy::SimdFloatCmp                 0      0.00%     13.66% # attempts to use FU when none available (Count)
system.cpu.statFuBusy::SimdFloatCvt               132      0.00%     13.66% # attempts to use FU when none available (Count)
system.cpu.statFuBusy::SimdFloatDiv            728353      1.56%     15.22% # attempts to use FU when none available (Count)
system.cpu.statFuBusy::SimdFloatMisc                0      0.00%     15.22% # attempts to use FU when none available (Count)
system.cpu.statFuBusy::SimdFloatMult          6205012     13.27%     28.49% # attempts to use FU when none available (Count)
system.cpu.statFuBusy::SimdFloatMultAcc             0      0.00%     28.49% # attempts to use FU when none available (Count)
system.cpu.statFuBusy::SimdFloatSqrt               38      0.00%     28.49% # attempts to use FU when none available (Count)
system.cpu.statFuBusy::SimdReduceAdd                0      0.00%     28.49% # attempts to use FU when none available (Count)
system.cpu.statFuBusy::SimdReduceAlu                0      0.00%     28.49% # attempts to use FU when none available (Count)
system.cpu.statFuBusy::SimdReduceCmp                0      0.00%     28.49% # attempts to use FU when none available (Count)
system.cpu.statFuBusy::SimdFloatReduceAdd            0      0.00%     28.49% # attempts to use FU when none available (Count)
system.cpu.statFuBusy::SimdFloatReduceCmp            0      0.00%     28.49% # attempts to use FU when none available (Count)
system.cpu.statFuBusy::SimdAes                      0      0.00%     28.49% # attempts to use FU when none available (Count)
system.cpu.statFuBusy::SimdAesMix                   0      0.00%     28.49% # attempts to use FU when none available (Count)
system.cpu.statFuBusy::SimdSha1Hash                 0      0.00%     28.49% # attempts to use FU when none available (Count)
system.cpu.statFuBusy::SimdSha1Hash2                0      0.00%     28.49% # attempts to use FU when none available (Count)
system.cpu.statFuBusy::SimdSha256Hash               0      0.00%     28.49% # attempts to use FU when none available (Count)
system.cpu.statFuBusy::SimdSha256Hash2              0      0.00%     28.49% # attempts to use FU when none available (Count)
system.cpu.statFuBusy::SimdShaSigma2                0      0.00%     28.49% # attempts to use FU when none available (Count)
system.cpu.statFuBusy::SimdShaSigma3                0      0.00%     28.49% # attempts to use FU when none available (Count)
system.cpu.statFuBusy::SimdPredAlu                  0      0.00%     28.49% # attempts to use FU when none available (Count)
system.cpu.statFuBusy::MemRead               12440256     26.60%     55.09% # attempts to use FU when none available (Count)
system.cpu.statFuBusy::MemWrite                 33526      0.07%     55.16% # attempts to use FU when none available (Count)
system.cpu.statFuBusy::FloatMemRead          20963182     44.83%     99.99% # attempts to use FU when none available (Count)
system.cpu.statFuBusy::FloatMemWrite             4327      0.01%    100.00% # attempts to use FU when none available (Count)
system.cpu.statFuBusy::IprAccess                    0      0.00%    100.00% # attempts to use FU when none available (Count)
system.cpu.statFuBusy::InstPrefetch                 0      0.00%    100.00% # attempts to use FU when none available (Count)
system.cpu.statIssuedInstType_0::No_OpClass       577778      0.03%      0.03% # Number of instructions issued per FU type, per thread (Count)
system.cpu.statIssuedInstType_0::IntAlu     702517789     40.06%     40.10% # Number of instructions issued per FU type, per thread (Count)
system.cpu.statIssuedInstType_0::IntMult       127334      0.01%     40.10% # Number of instructions issued per FU type, per thread (Count)
system.cpu.statIssuedInstType_0::IntDiv         13674      0.00%     40.10% # Number of instructions issued per FU type, per thread (Count)
system.cpu.statIssuedInstType_0::FloatAdd    147517263      8.41%     48.52% # Number of instructions issued per FU type, per thread (Count)
system.cpu.statIssuedInstType_0::FloatCmp            0      0.00%     48.52% # Number of instructions issued per FU type, per thread (Count)
system.cpu.statIssuedInstType_0::FloatCvt         1038      0.00%     48.52% # Number of instructions issued per FU type, per thread (Count)
system.cpu.statIssuedInstType_0::FloatMult            0      0.00%     48.52% # Number of instructions issued per FU type, per thread (Count)
system.cpu.statIssuedInstType_0::FloatMultAcc            0      0.00%     48.52% # Number of instructions issued per FU type, per thread (Count)
system.cpu.statIssuedInstType_0::FloatDiv            0      0.00%     48.52% # Number of instructions issued per FU type, per thread (Count)
system.cpu.statIssuedInstType_0::FloatMisc            0      0.00%     48.52% # Number of instructions issued per FU type, per thread (Count)
system.cpu.statIssuedInstType_0::FloatSqrt            0      0.00%     48.52% # Number of instructions issued per FU type, per thread (Count)
system.cpu.statIssuedInstType_0::SimdAdd            2      0.00%     48.52% # Number of instructions issued per FU type, per thread (Count)
system.cpu.statIssuedInstType_0::SimdAddAcc            0      0.00%     48.52% # Number of instructions issued per FU type, per thread (Count)
system.cpu.statIssuedInstType_0::SimdAlu     18549349      1.06%     49.57% # Number of instructions issued per FU type, per thread (Count)
system.cpu.statIssuedInstType_0::SimdCmp            0      0.00%     49.57% # Number of instructions issued per FU type, per thread (Count)
system.cpu.statIssuedInstType_0::SimdCvt          287      0.00%     49.57% # Number of instructions issued per FU type, per thread (Count)
system.cpu.statIssuedInstType_0::SimdMisc         2539      0.00%     49.57% # Number of instructions issued per FU type, per thread (Count)
system.cpu.statIssuedInstType_0::SimdMult            0      0.00%     49.57% # Number of instructions issued per FU type, per thread (Count)
system.cpu.statIssuedInstType_0::SimdMultAcc            0      0.00%     49.57% # Number of instructions issued per FU type, per thread (Count)
system.cpu.statIssuedInstType_0::SimdShift            0      0.00%     49.57% # Number of instructions issued per FU type, per thread (Count)
system.cpu.statIssuedInstType_0::SimdShiftAcc            0      0.00%     49.57% # Number of instructions issued per FU type, per thread (Count)
system.cpu.statIssuedInstType_0::SimdDiv            0      0.00%     49.57% # Number of instructions issued per FU type, per thread (Count)
system.cpu.statIssuedInstType_0::SimdSqrt            0      0.00%     49.57% # Number of instructions issued per FU type, per thread (Count)
system.cpu.statIssuedInstType_0::SimdFloatAdd    168738528      9.62%     59.20% # Number of instructions issued per FU type, per thread (Count)
system.cpu.statIssuedInstType_0::SimdFloatAlu            0      0.00%     59.20% # Number of instructions issued per FU type, per thread (Count)
system.cpu.statIssuedInstType_0::SimdFloatCmp            0      0.00%     59.20% # Number of instructions issued per FU type, per thread (Count)
system.cpu.statIssuedInstType_0::SimdFloatCvt      2684499      0.15%     59.35% # Number of instructions issued per FU type, per thread (Count)
system.cpu.statIssuedInstType_0::SimdFloatDiv     17443697      0.99%     60.34% # Number of instructions issued per FU type, per thread (Count)
system.cpu.statIssuedInstType_0::SimdFloatMisc            0      0.00%     60.34% # Number of instructions issued per FU type, per thread (Count)
system.cpu.statIssuedInstType_0::SimdFloatMult    166867364      9.52%     69.86% # Number of instructions issued per FU type, per thread (Count)
system.cpu.statIssuedInstType_0::SimdFloatMultAcc            0      0.00%     69.86% # Number of instructions issued per FU type, per thread (Count)
system.cpu.statIssuedInstType_0::SimdFloatSqrt      2271073      0.13%     69.99% # Number of instructions issued per FU type, per thread (Count)
system.cpu.statIssuedInstType_0::SimdReduceAdd            0      0.00%     69.99% # Number of instructions issued per FU type, per thread (Count)
system.cpu.statIssuedInstType_0::SimdReduceAlu            0      0.00%     69.99% # Number of instructions issued per FU type, per thread (Count)
system.cpu.statIssuedInstType_0::SimdReduceCmp            0      0.00%     69.99% # Number of instructions issued per FU type, per thread (Count)
system.cpu.statIssuedInstType_0::SimdFloatReduceAdd            0      0.00%     69.99% # Number of instructions issued per FU type, per thread (Count)
system.cpu.statIssuedInstType_0::SimdFloatReduceCmp            0      0.00%     69.99% # Number of instructions issued per FU type, per thread (Count)
system.cpu.statIssuedInstType_0::SimdAes            0      0.00%     69.99% # Number of instructions issued per FU type, per thread (Count)
system.cpu.statIssuedInstType_0::SimdAesMix            0      0.00%     69.99% # Number of instructions issued per FU type, per thread (Count)
system.cpu.statIssuedInstType_0::SimdSha1Hash            0      0.00%     69.99% # Number of instructions issued per FU type, per thread (Count)
system.cpu.statIssuedInstType_0::SimdSha1Hash2            0      0.00%     69.99% # Number of instructions issued per FU type, per thread (Count)
system.cpu.statIssuedInstType_0::SimdSha256Hash            0      0.00%     69.99% # Number of instructions issued per FU type, per thread (Count)
system.cpu.statIssuedInstType_0::SimdSha256Hash2            0      0.00%     69.99% # Number of instructions issued per FU type, per thread (Count)
system.cpu.statIssuedInstType_0::SimdShaSigma2            0      0.00%     69.99% # Number of instructions issued per FU type, per thread (Count)
system.cpu.statIssuedInstType_0::SimdShaSigma3            0      0.00%     69.99% # Number of instructions issued per FU type, per thread (Count)
system.cpu.statIssuedInstType_0::SimdPredAlu            0      0.00%     69.99% # Number of instructions issued per FU type, per thread (Count)
system.cpu.statIssuedInstType_0::MemRead     56441775      3.22%     73.21% # Number of instructions issued per FU type, per thread (Count)
system.cpu.statIssuedInstType_0::MemWrite     30763011      1.75%     74.96% # Number of instructions issued per FU type, per thread (Count)
system.cpu.statIssuedInstType_0::FloatMemRead    347625765     19.82%     94.79% # Number of instructions issued per FU type, per thread (Count)
system.cpu.statIssuedInstType_0::FloatMemWrite     91423566      5.21%    100.00% # Number of instructions issued per FU type, per thread (Count)
system.cpu.statIssuedInstType_0::IprAccess            0      0.00%    100.00% # Number of instructions issued per FU type, per thread (Count)
system.cpu.statIssuedInstType_0::InstPrefetch            0      0.00%    100.00% # Number of instructions issued per FU type, per thread (Count)
system.cpu.statIssuedInstType_0::total     1753566331                       # Number of instructions issued per FU type, per thread (Count)
system.cpu.issueRate                         0.743376                       # Inst issue rate ((Count/Cycle))
system.cpu.fuBusy                            46762895                       # FU busy when requested (Count)
system.cpu.fuBusyRate                        0.026667                       # FU busy rate (busy events/executed inst) ((Count/Count))
system.cpu.intInstQueueReads               3851415913                       # Number of integer instruction queue reads (Count)
system.cpu.intInstQueueWrites               735518947                       # Number of integer instruction queue writes (Count)
system.cpu.intInstQueueWakeupAccesses       720346274                       # Number of integer instruction queue wakeup accesses (Count)
system.cpu.fpInstQueueReads                2061182812                       # Number of floating instruction queue reads (Count)
system.cpu.fpInstQueueWrites                944631162                       # Number of floating instruction queue writes (Count)
system.cpu.fpInstQueueWakeupAccesses        934787716                       # Number of floating instruction queue wakeup accesses (Count)
system.cpu.vecInstQueueReads                        0                       # Number of vector instruction queue reads (Count)
system.cpu.vecInstQueueWrites                       0                       # Number of vector instruction queue writes (Count)
system.cpu.vecInstQueueWakeupAccesses               0                       # Number of vector instruction queue wakeup accesses (Count)
system.cpu.intAluAccesses                   752364180                       # Number of integer alu accesses (Count)
system.cpu.fpAluAccesses                   1047387268                       # Number of floating point alu accesses (Count)
system.cpu.vecAluAccesses                           0                       # Number of vector alu accesses (Count)
system.cpu.numInsts                        1752030473                       # Number of executed instructions (Count)
system.cpu.numLoadInsts                     403743897                       # Number of load instructions executed (Count)
system.cpu.numSquashedInsts                   1535854                       # Number of squashed instructions skipped in execute (Count)
system.cpu.numSwp                                   0                       # Number of swp insts executed (Count)
system.cpu.numNop                                   0                       # Number of nop insts executed (Count)
system.cpu.numRefs                          525890945                       # Number of memory reference insts executed (Count)
system.cpu.numBranches                       88559363                       # Number of branches executed (Count)
system.cpu.numStoreInsts                    122147048                       # Number of stores executed (Count)
system.cpu.numRate                           0.742725                       # Inst execution rate ((Count/Cycle))
system.cpu.timesIdled                            4328                       # Number of times that the entire CPU went into an idle state and unscheduled itself (Count)
system.cpu.idleCycles                          375017                       # Total number of cycles that the CPU has spent unscheduled due to idling (Cycle)
system.cpu.committedInsts                  1000000001                       # Number of Instructions Simulated (Count)
system.cpu.committedOps                    1644467422                       # Number of Ops (including micro ops) Simulated (Count)
system.cpu.cpi                               2.358921                       # CPI: Cycles Per Instruction ((Cycle/Count))
system.cpu.totalCpi                          2.358921                       # CPI: Total CPI of All Threads ((Cycle/Count))
system.cpu.ipc                               0.423923                       # IPC: Instructions Per Cycle ((Count/Cycle))
system.cpu.totalIpc                          0.423923                       # IPC: Total IPC of All Threads ((Count/Cycle))
system.cpu.intRegfileReads                 1523853357                       # Number of integer regfile reads (Count)
system.cpu.intRegfileWrites                 515312744                       # Number of integer regfile writes (Count)
system.cpu.fpRegfileReads                  1298631715                       # Number of floating regfile reads (Count)
system.cpu.fpRegfileWrites                  840858124                       # Number of floating regfile writes (Count)
system.cpu.ccRegfileReads                   448725962                       # number of cc regfile reads (Count)
system.cpu.ccRegfileWrites                  438651046                       # number of cc regfile writes (Count)
system.cpu.miscRegfileReads                 711324047                       # number of misc regfile reads (Count)
system.cpu.miscRegfileWrites                      452                       # number of misc regfile writes (Count)
system.cpu.MemDepUnit__0.insertedLoads      309398989                       # Number of loads inserted to the mem dependence unit. (Count)
system.cpu.MemDepUnit__0.insertedStores     122749699                       # Number of stores inserted to the mem dependence unit. (Count)
system.cpu.MemDepUnit__0.conflictingLoads     13896890                       # Number of conflicting loads. (Count)
system.cpu.MemDepUnit__0.conflictingStores     13559234                       # Number of conflicting stores. (Count)
system.cpu.MemDepUnit__1.insertedLoads              0                       # Number of loads inserted to the mem dependence unit. (Count)
system.cpu.MemDepUnit__1.insertedStores             0                       # Number of stores inserted to the mem dependence unit. (Count)
system.cpu.MemDepUnit__1.conflictingLoads            0                       # Number of conflicting loads. (Count)
system.cpu.MemDepUnit__1.conflictingStores            0                       # Number of conflicting stores. (Count)
system.cpu.MemDepUnit__2.insertedLoads              0                       # Number of loads inserted to the mem dependence unit. (Count)
system.cpu.MemDepUnit__2.insertedStores             0                       # Number of stores inserted to the mem dependence unit. (Count)
system.cpu.MemDepUnit__2.conflictingLoads            0                       # Number of conflicting loads. (Count)
system.cpu.MemDepUnit__2.conflictingStores            0                       # Number of conflicting stores. (Count)
system.cpu.MemDepUnit__3.insertedLoads              0                       # Number of loads inserted to the mem dependence unit. (Count)
system.cpu.MemDepUnit__3.insertedStores             0                       # Number of stores inserted to the mem dependence unit. (Count)
system.cpu.MemDepUnit__3.conflictingLoads            0                       # Number of conflicting loads. (Count)
system.cpu.MemDepUnit__3.conflictingStores            0                       # Number of conflicting stores. (Count)
system.cpu.branchPred.lookups                91125613                       # Number of BP lookups (Count)
system.cpu.branchPred.condPredicted          91028143                       # Number of conditional branches predicted (Count)
system.cpu.branchPred.condIncorrect            712197                       # Number of conditional branches incorrect (Count)
system.cpu.branchPred.BTBLookups             87839356                       # Number of BTB lookups (Count)
system.cpu.branchPred.BTBHits                87830509                       # Number of BTB hits (Count)
system.cpu.branchPred.BTBHitRatio            0.999899                       # BTB Hit Ratio (Ratio)
system.cpu.branchPred.RASUsed                   19111                       # Number of times the RAS was used to get a target. (Count)
system.cpu.branchPred.RASIncorrect                 16                       # Number of incorrect RAS predictions. (Count)
system.cpu.branchPred.indirectLookups           11540                       # Number of indirect predictor lookups. (Count)
system.cpu.branchPred.indirectHits               6544                       # Number of indirect target hits. (Count)
system.cpu.branchPred.indirectMisses             4996                       # Number of indirect misses. (Count)
system.cpu.branchPred.indirectMispredicted          908                       # Number of mispredicted indirect branches. (Count)
system.cpu.commit.commitSquashedInsts        17850746                       # The number of squashed insts skipped by commit (Count)
system.cpu.commit.commitNonSpecStalls             484                       # The number of times commit has been forced to stall to communicate backwards (Count)
system.cpu.commit.branchMispredicts            710742                       # The number of times a branch was mispredicted (Count)
system.cpu.commit.numCommittedDist::samples   2355957136                       # Number of insts commited each cycle (Count)
system.cpu.commit.numCommittedDist::mean     0.698004                       # Number of insts commited each cycle (Count)
system.cpu.commit.numCommittedDist::stdev     1.979478                       # Number of insts commited each cycle (Count)
system.cpu.commit.numCommittedDist::underflows            0      0.00%      0.00% # Number of insts commited each cycle (Count)
system.cpu.commit.numCommittedDist::0      1974832407     83.82%     83.82% # Number of insts commited each cycle (Count)
system.cpu.commit.numCommittedDist::1       104195125      4.42%     88.25% # Number of insts commited each cycle (Count)
system.cpu.commit.numCommittedDist::2        49886095      2.12%     90.36% # Number of insts commited each cycle (Count)
system.cpu.commit.numCommittedDist::3        41398700      1.76%     92.12% # Number of insts commited each cycle (Count)
system.cpu.commit.numCommittedDist::4        16403922      0.70%     92.82% # Number of insts commited each cycle (Count)
system.cpu.commit.numCommittedDist::5        20440163      0.87%     93.68% # Number of insts commited each cycle (Count)
system.cpu.commit.numCommittedDist::6        17499809      0.74%     94.43% # Number of insts commited each cycle (Count)
system.cpu.commit.numCommittedDist::7         6918670      0.29%     94.72% # Number of insts commited each cycle (Count)
system.cpu.commit.numCommittedDist::8       124382245      5.28%    100.00% # Number of insts commited each cycle (Count)
system.cpu.commit.numCommittedDist::overflows            0      0.00%    100.00% # Number of insts commited each cycle (Count)
system.cpu.commit.numCommittedDist::min_value            0                       # Number of insts commited each cycle (Count)
system.cpu.commit.numCommittedDist::max_value            8                       # Number of insts commited each cycle (Count)
system.cpu.commit.numCommittedDist::total   2355957136                       # Number of insts commited each cycle (Count)
system.cpu.commit.instsCommitted           1000000001                       # Number of instructions committed (Count)
system.cpu.commit.opsCommitted             1644467422                       # Number of ops (including micro ops) committed (Count)
system.cpu.commit.memRefs                   428439928                       # Number of memory references committed (Count)
system.cpu.commit.loads                     307322754                       # Number of loads committed (Count)
system.cpu.commit.amos                              0                       # Number of atomic instructions committed (Count)
system.cpu.commit.membars                          20                       # Number of memory barriers committed (Count)
system.cpu.commit.branches                   87542690                       # Number of branches committed (Count)
system.cpu.commit.vectorInstructions                0                       # Number of committed Vector instructions. (Count)
system.cpu.commit.floating                  933530825                       # Number of committed floating point instructions. (Count)
system.cpu.commit.integer                  1070555495                       # Number of committed integer instructions. (Count)
system.cpu.commit.functionCalls                 12445                       # Number of function calls committed. (Count)
system.cpu.commit.committedInstType_0::No_OpClass       563377      0.03%      0.03% # Class of committed instruction (Count)
system.cpu.commit.committedInstType_0::IntAlu    692522677     42.11%     42.15% # Class of committed instruction (Count)
system.cpu.commit.committedInstType_0::IntMult       127073      0.01%     42.15% # Class of committed instruction (Count)
system.cpu.commit.committedInstType_0::IntDiv        12663      0.00%     42.16% # Class of committed instruction (Count)
system.cpu.commit.committedInstType_0::FloatAdd    146330016      8.90%     51.05% # Class of committed instruction (Count)
system.cpu.commit.committedInstType_0::FloatCmp            0      0.00%     51.05% # Class of committed instruction (Count)
system.cpu.commit.committedInstType_0::FloatCvt          800      0.00%     51.05% # Class of committed instruction (Count)
system.cpu.commit.committedInstType_0::FloatMult            0      0.00%     51.05% # Class of committed instruction (Count)
system.cpu.commit.committedInstType_0::FloatMultAcc            0      0.00%     51.05% # Class of committed instruction (Count)
system.cpu.commit.committedInstType_0::FloatDiv            0      0.00%     51.05% # Class of committed instruction (Count)
system.cpu.commit.committedInstType_0::FloatMisc            0      0.00%     51.05% # Class of committed instruction (Count)
system.cpu.commit.committedInstType_0::FloatSqrt            0      0.00%     51.05% # Class of committed instruction (Count)
system.cpu.commit.committedInstType_0::SimdAdd            2      0.00%     51.05% # Class of committed instruction (Count)
system.cpu.commit.committedInstType_0::SimdAddAcc            0      0.00%     51.05% # Class of committed instruction (Count)
system.cpu.commit.committedInstType_0::SimdAlu     18503132      1.13%     52.18% # Class of committed instruction (Count)
system.cpu.commit.committedInstType_0::SimdCmp            0      0.00%     52.18% # Class of committed instruction (Count)
system.cpu.commit.committedInstType_0::SimdCvt          238      0.00%     52.18% # Class of committed instruction (Count)
system.cpu.commit.committedInstType_0::SimdMisc         2373      0.00%     52.18% # Class of committed instruction (Count)
system.cpu.commit.committedInstType_0::SimdMult            0      0.00%     52.18% # Class of committed instruction (Count)
system.cpu.commit.committedInstType_0::SimdMultAcc            0      0.00%     52.18% # Class of committed instruction (Count)
system.cpu.commit.committedInstType_0::SimdShift            0      0.00%     52.18% # Class of committed instruction (Count)
system.cpu.commit.committedInstType_0::SimdShiftAcc            0      0.00%     52.18% # Class of committed instruction (Count)
system.cpu.commit.committedInstType_0::SimdDiv            0      0.00%     52.18% # Class of committed instruction (Count)
system.cpu.commit.committedInstType_0::SimdSqrt            0      0.00%     52.18% # Class of committed instruction (Count)
system.cpu.commit.committedInstType_0::SimdFloatAdd    168724705     10.26%     62.44% # Class of committed instruction (Count)
system.cpu.commit.committedInstType_0::SimdFloatAlu            0      0.00%     62.44% # Class of committed instruction (Count)
system.cpu.commit.committedInstType_0::SimdFloatCmp            0      0.00%     62.44% # Class of committed instruction (Count)
system.cpu.commit.committedInstType_0::SimdFloatCvt      2683128      0.16%     62.60% # Class of committed instruction (Count)
system.cpu.commit.committedInstType_0::SimdFloatDiv     17441556      1.06%     63.66% # Class of committed instruction (Count)
system.cpu.commit.committedInstType_0::SimdFloatMisc            0      0.00%     63.66% # Class of committed instruction (Count)
system.cpu.commit.committedInstType_0::SimdFloatMult    166844871     10.15%     73.81% # Class of committed instruction (Count)
system.cpu.commit.committedInstType_0::SimdFloatMultAcc            0      0.00%     73.81% # Class of committed instruction (Count)
system.cpu.commit.committedInstType_0::SimdFloatSqrt      2270883      0.14%     73.95% # Class of committed instruction (Count)
system.cpu.commit.committedInstType_0::SimdReduceAdd            0      0.00%     73.95% # Class of committed instruction (Count)
system.cpu.commit.committedInstType_0::SimdReduceAlu            0      0.00%     73.95% # Class of committed instruction (Count)
system.cpu.commit.committedInstType_0::SimdReduceCmp            0      0.00%     73.95% # Class of committed instruction (Count)
system.cpu.commit.committedInstType_0::SimdFloatReduceAdd            0      0.00%     73.95% # Class of committed instruction (Count)
system.cpu.commit.committedInstType_0::SimdFloatReduceCmp            0      0.00%     73.95% # Class of committed instruction (Count)
system.cpu.commit.committedInstType_0::SimdAes            0      0.00%     73.95% # Class of committed instruction (Count)
system.cpu.commit.committedInstType_0::SimdAesMix            0      0.00%     73.95% # Class of committed instruction (Count)
system.cpu.commit.committedInstType_0::SimdSha1Hash            0      0.00%     73.95% # Class of committed instruction (Count)
system.cpu.commit.committedInstType_0::SimdSha1Hash2            0      0.00%     73.95% # Class of committed instruction (Count)
system.cpu.commit.committedInstType_0::SimdSha256Hash            0      0.00%     73.95% # Class of committed instruction (Count)
system.cpu.commit.committedInstType_0::SimdSha256Hash2            0      0.00%     73.95% # Class of committed instruction (Count)
system.cpu.commit.committedInstType_0::SimdShaSigma2            0      0.00%     73.95% # Class of committed instruction (Count)
system.cpu.commit.committedInstType_0::SimdShaSigma3            0      0.00%     73.95% # Class of committed instruction (Count)
system.cpu.commit.committedInstType_0::SimdPredAlu            0      0.00%     73.95% # Class of committed instruction (Count)
system.cpu.commit.committedInstType_0::MemRead     38449293      2.34%     76.28% # Class of committed instruction (Count)
system.cpu.commit.committedInstType_0::MemWrite     29704676      1.81%     78.09% # Class of committed instruction (Count)
system.cpu.commit.committedInstType_0::FloatMemRead    268873461     16.35%     94.44% # Class of committed instruction (Count)
system.cpu.commit.committedInstType_0::FloatMemWrite     91412498      5.56%    100.00% # Class of committed instruction (Count)
system.cpu.commit.committedInstType_0::IprAccess            0      0.00%    100.00% # Class of committed instruction (Count)
system.cpu.commit.committedInstType_0::InstPrefetch            0      0.00%    100.00% # Class of committed instruction (Count)
system.cpu.commit.committedInstType_0::total   1644467422                       # Class of committed instruction (Count)
system.cpu.commit.commitEligibleSamples     124382245                       # number cycles where commit BW limit reached (Cycle)
system.cpu.dcache.demandHits::cpu.data      340657196                       # number of demand (read+write) hits (Count)
system.cpu.dcache.demandHits::total         340657196                       # number of demand (read+write) hits (Count)
system.cpu.dcache.overallHits::cpu.data     340657196                       # number of overall hits (Count)
system.cpu.dcache.overallHits::total        340657196                       # number of overall hits (Count)
system.cpu.dcache.demandMisses::cpu.data     85751050                       # number of demand (read+write) misses (Count)
system.cpu.dcache.demandMisses::total        85751050                       # number of demand (read+write) misses (Count)
system.cpu.dcache.overallMisses::cpu.data     85751050                       # number of overall misses (Count)
system.cpu.dcache.overallMisses::total       85751050                       # number of overall misses (Count)
system.cpu.dcache.demandMissLatency::cpu.data 4710121821637                       # number of demand (read+write) miss ticks (Tick)
system.cpu.dcache.demandMissLatency::total 4710121821637                       # number of demand (read+write) miss ticks (Tick)
system.cpu.dcache.overallMissLatency::cpu.data 4710121821637                       # number of overall miss ticks (Tick)
system.cpu.dcache.overallMissLatency::total 4710121821637                       # number of overall miss ticks (Tick)
system.cpu.dcache.demandAccesses::cpu.data    426408246                       # number of demand (read+write) accesses (Count)
system.cpu.dcache.demandAccesses::total     426408246                       # number of demand (read+write) accesses (Count)
system.cpu.dcache.overallAccesses::cpu.data    426408246                       # number of overall (read+write) accesses (Count)
system.cpu.dcache.overallAccesses::total    426408246                       # number of overall (read+write) accesses (Count)
system.cpu.dcache.demandMissRate::cpu.data     0.201101                       # miss rate for demand accesses (Ratio)
system.cpu.dcache.demandMissRate::total      0.201101                       # miss rate for demand accesses (Ratio)
system.cpu.dcache.overallMissRate::cpu.data     0.201101                       # miss rate for overall accesses (Ratio)
system.cpu.dcache.overallMissRate::total     0.201101                       # miss rate for overall accesses (Ratio)
system.cpu.dcache.demandAvgMissLatency::cpu.data 54927.861777                       # average overall miss latency in ticks ((Tick/Count))
system.cpu.dcache.demandAvgMissLatency::total 54927.861777                       # average overall miss latency in ticks ((Tick/Count))
system.cpu.dcache.overallAvgMissLatency::cpu.data 54927.861777                       # average overall miss latency ((Tick/Count))
system.cpu.dcache.overallAvgMissLatency::total 54927.861777                       # average overall miss latency ((Tick/Count))
system.cpu.dcache.blockedCycles::no_mshrs    494688238                       # number of cycles access was blocked (Cycle)
system.cpu.dcache.blockedCycles::no_targets      8484829                       # number of cycles access was blocked (Cycle)
system.cpu.dcache.blockedCauses::no_mshrs     10726036                       # number of times access was blocked (Count)
system.cpu.dcache.blockedCauses::no_targets       165401                       # number of times access was blocked (Count)
system.cpu.dcache.avgBlocked::no_mshrs      46.120322                       # average number of cycles each access was blocked ((Cycle/Count))
system.cpu.dcache.avgBlocked::no_targets    51.298535                       # average number of cycles each access was blocked ((Cycle/Count))
system.cpu.dcache.writebacks::writebacks     13399151                       # number of writebacks (Count)
system.cpu.dcache.writebacks::total          13399151                       # number of writebacks (Count)
system.cpu.dcache.demandMshrHits::cpu.data     53196982                       # number of demand (read+write) MSHR hits (Count)
system.cpu.dcache.demandMshrHits::total      53196982                       # number of demand (read+write) MSHR hits (Count)
system.cpu.dcache.overallMshrHits::cpu.data     53196982                       # number of overall MSHR hits (Count)
system.cpu.dcache.overallMshrHits::total     53196982                       # number of overall MSHR hits (Count)
system.cpu.dcache.demandMshrMisses::cpu.data     32554068                       # number of demand (read+write) MSHR misses (Count)
system.cpu.dcache.demandMshrMisses::total     32554068                       # number of demand (read+write) MSHR misses (Count)
system.cpu.dcache.overallMshrMisses::cpu.data     32554068                       # number of overall MSHR misses (Count)
system.cpu.dcache.overallMshrMisses::total     32554068                       # number of overall MSHR misses (Count)
system.cpu.dcache.demandMshrMissLatency::cpu.data 2340834757137                       # number of demand (read+write) MSHR miss ticks (Tick)
system.cpu.dcache.demandMshrMissLatency::total 2340834757137                       # number of demand (read+write) MSHR miss ticks (Tick)
system.cpu.dcache.overallMshrMissLatency::cpu.data 2340834757137                       # number of overall MSHR miss ticks (Tick)
system.cpu.dcache.overallMshrMissLatency::total 2340834757137                       # number of overall MSHR miss ticks (Tick)
system.cpu.dcache.demandMshrMissRate::cpu.data     0.076345                       # mshr miss ratio for demand accesses (Ratio)
system.cpu.dcache.demandMshrMissRate::total     0.076345                       # mshr miss ratio for demand accesses (Ratio)
system.cpu.dcache.overallMshrMissRate::cpu.data     0.076345                       # mshr miss ratio for overall accesses (Ratio)
system.cpu.dcache.overallMshrMissRate::total     0.076345                       # mshr miss ratio for overall accesses (Ratio)
system.cpu.dcache.demandAvgMshrMissLatency::cpu.data 71906.059702                       # average overall mshr miss latency ((Tick/Count))
system.cpu.dcache.demandAvgMshrMissLatency::total 71906.059702                       # average overall mshr miss latency ((Tick/Count))
system.cpu.dcache.overallAvgMshrMissLatency::cpu.data 71906.059702                       # average overall mshr miss latency ((Tick/Count))
system.cpu.dcache.overallAvgMshrMissLatency::total 71906.059702                       # average overall mshr miss latency ((Tick/Count))
system.cpu.dcache.replacements               32553552                       # number of replacements (Count)
system.cpu.dcache.LockedRMWReadReq.hits::cpu.data           10                       # number of LockedRMWReadReq hits (Count)
system.cpu.dcache.LockedRMWReadReq.hits::total           10                       # number of LockedRMWReadReq hits (Count)
system.cpu.dcache.LockedRMWReadReq.accesses::cpu.data           10                       # number of LockedRMWReadReq accesses(hits+misses) (Count)
system.cpu.dcache.LockedRMWReadReq.accesses::total           10                       # number of LockedRMWReadReq accesses(hits+misses) (Count)
system.cpu.dcache.LockedRMWReadReq.mshrMissLatency::cpu.data        30000                       # number of LockedRMWReadReq MSHR miss ticks (Tick)
system.cpu.dcache.LockedRMWReadReq.mshrMissLatency::total        30000                       # number of LockedRMWReadReq MSHR miss ticks (Tick)
system.cpu.dcache.LockedRMWReadReq.avgMshrMissLatency::cpu.data          inf                       # average LockedRMWReadReq mshr miss latency ((Tick/Count))
system.cpu.dcache.LockedRMWReadReq.avgMshrMissLatency::total          inf                       # average LockedRMWReadReq mshr miss latency ((Tick/Count))
system.cpu.dcache.LockedRMWWriteReq.hits::cpu.data           10                       # number of LockedRMWWriteReq hits (Count)
system.cpu.dcache.LockedRMWWriteReq.hits::total           10                       # number of LockedRMWWriteReq hits (Count)
system.cpu.dcache.LockedRMWWriteReq.accesses::cpu.data           10                       # number of LockedRMWWriteReq accesses(hits+misses) (Count)
system.cpu.dcache.LockedRMWWriteReq.accesses::total           10                       # number of LockedRMWWriteReq accesses(hits+misses) (Count)
system.cpu.dcache.ReadReq.hits::cpu.data    230756520                       # number of ReadReq hits (Count)
system.cpu.dcache.ReadReq.hits::total       230756520                       # number of ReadReq hits (Count)
system.cpu.dcache.ReadReq.misses::cpu.data     74534538                       # number of ReadReq misses (Count)
system.cpu.dcache.ReadReq.misses::total      74534538                       # number of ReadReq misses (Count)
system.cpu.dcache.ReadReq.missLatency::cpu.data 3950098763500                       # number of ReadReq miss ticks (Tick)
system.cpu.dcache.ReadReq.missLatency::total 3950098763500                       # number of ReadReq miss ticks (Tick)
system.cpu.dcache.ReadReq.accesses::cpu.data    305291058                       # number of ReadReq accesses(hits+misses) (Count)
system.cpu.dcache.ReadReq.accesses::total    305291058                       # number of ReadReq accesses(hits+misses) (Count)
system.cpu.dcache.ReadReq.missRate::cpu.data     0.244143                       # miss rate for ReadReq accesses (Ratio)
system.cpu.dcache.ReadReq.missRate::total     0.244143                       # miss rate for ReadReq accesses (Ratio)
system.cpu.dcache.ReadReq.avgMissLatency::cpu.data 52996.890696                       # average ReadReq miss latency ((Tick/Count))
system.cpu.dcache.ReadReq.avgMissLatency::total 52996.890696                       # average ReadReq miss latency ((Tick/Count))
system.cpu.dcache.ReadReq.mshrHits::cpu.data     53183840                       # number of ReadReq MSHR hits (Count)
system.cpu.dcache.ReadReq.mshrHits::total     53183840                       # number of ReadReq MSHR hits (Count)
system.cpu.dcache.ReadReq.mshrMisses::cpu.data     21350698                       # number of ReadReq MSHR misses (Count)
system.cpu.dcache.ReadReq.mshrMisses::total     21350698                       # number of ReadReq MSHR misses (Count)
system.cpu.dcache.ReadReq.mshrMissLatency::cpu.data 1592413348000                       # number of ReadReq MSHR miss ticks (Tick)
system.cpu.dcache.ReadReq.mshrMissLatency::total 1592413348000                       # number of ReadReq MSHR miss ticks (Tick)
system.cpu.dcache.ReadReq.mshrMissRate::cpu.data     0.069936                       # mshr miss rate for ReadReq accesses (Ratio)
system.cpu.dcache.ReadReq.mshrMissRate::total     0.069936                       # mshr miss rate for ReadReq accesses (Ratio)
system.cpu.dcache.ReadReq.avgMshrMissLatency::cpu.data 74583.666913                       # average ReadReq mshr miss latency ((Tick/Count))
system.cpu.dcache.ReadReq.avgMshrMissLatency::total 74583.666913                       # average ReadReq mshr miss latency ((Tick/Count))
system.cpu.dcache.WriteReq.hits::cpu.data    109900676                       # number of WriteReq hits (Count)
system.cpu.dcache.WriteReq.hits::total      109900676                       # number of WriteReq hits (Count)
system.cpu.dcache.WriteReq.misses::cpu.data     11216512                       # number of WriteReq misses (Count)
system.cpu.dcache.WriteReq.misses::total     11216512                       # number of WriteReq misses (Count)
system.cpu.dcache.WriteReq.missLatency::cpu.data 760023058137                       # number of WriteReq miss ticks (Tick)
system.cpu.dcache.WriteReq.missLatency::total 760023058137                       # number of WriteReq miss ticks (Tick)
system.cpu.dcache.WriteReq.accesses::cpu.data    121117188                       # number of WriteReq accesses(hits+misses) (Count)
system.cpu.dcache.WriteReq.accesses::total    121117188                       # number of WriteReq accesses(hits+misses) (Count)
system.cpu.dcache.WriteReq.missRate::cpu.data     0.092609                       # miss rate for WriteReq accesses (Ratio)
system.cpu.dcache.WriteReq.missRate::total     0.092609                       # miss rate for WriteReq accesses (Ratio)
system.cpu.dcache.WriteReq.avgMissLatency::cpu.data 67759.305044                       # average WriteReq miss latency ((Tick/Count))
system.cpu.dcache.WriteReq.avgMissLatency::total 67759.305044                       # average WriteReq miss latency ((Tick/Count))
system.cpu.dcache.WriteReq.mshrHits::cpu.data        13142                       # number of WriteReq MSHR hits (Count)
system.cpu.dcache.WriteReq.mshrHits::total        13142                       # number of WriteReq MSHR hits (Count)
system.cpu.dcache.WriteReq.mshrMisses::cpu.data     11203370                       # number of WriteReq MSHR misses (Count)
system.cpu.dcache.WriteReq.mshrMisses::total     11203370                       # number of WriteReq MSHR misses (Count)
system.cpu.dcache.WriteReq.mshrMissLatency::cpu.data 748421409137                       # number of WriteReq MSHR miss ticks (Tick)
system.cpu.dcache.WriteReq.mshrMissLatency::total 748421409137                       # number of WriteReq MSHR miss ticks (Tick)
system.cpu.dcache.WriteReq.mshrMissRate::cpu.data     0.092500                       # mshr miss rate for WriteReq accesses (Ratio)
system.cpu.dcache.WriteReq.mshrMissRate::total     0.092500                       # mshr miss rate for WriteReq accesses (Ratio)
system.cpu.dcache.WriteReq.avgMshrMissLatency::cpu.data 66803.239484                       # average WriteReq mshr miss latency ((Tick/Count))
system.cpu.dcache.WriteReq.avgMshrMissLatency::total 66803.239484                       # average WriteReq mshr miss latency ((Tick/Count))
system.cpu.dcache.power_state.pwrStateResidencyTicks::UNDEFINED 1179460554000                       # Cumulative time (in ticks) in various power states (Tick)
system.cpu.dcache.tags.tagsInUse           511.987994                       # Average ticks per tags in use ((Tick/Count))
system.cpu.dcache.tags.totalRefs            373211284                       # Total number of references to valid blocks. (Count)
system.cpu.dcache.tags.sampledRefs           32554064                       # Sample count of references to valid blocks. (Count)
system.cpu.dcache.tags.avgRefs              11.464353                       # Average number of references to valid blocks. ((Count/Count))
system.cpu.dcache.tags.warmupTick              148000                       # The tick when the warmup percentage was hit. (Tick)
system.cpu.dcache.tags.occupancies::cpu.data   511.987994                       # Average occupied blocks per tick, per requestor ((Count/Tick))
system.cpu.dcache.tags.avgOccs::cpu.data     0.999977                       # Average percentage of cache occupancy ((Ratio/Tick))
system.cpu.dcache.tags.avgOccs::total        0.999977                       # Average percentage of cache occupancy ((Ratio/Tick))
system.cpu.dcache.tags.occupanciesTaskId::1024          512                       # Occupied blocks per task id (Count)
system.cpu.dcache.tags.ageTaskId_1024::0          238                       # Occupied blocks per task id, per block age (Count)
system.cpu.dcache.tags.ageTaskId_1024::1          241                       # Occupied blocks per task id, per block age (Count)
system.cpu.dcache.tags.ageTaskId_1024::2            8                       # Occupied blocks per task id, per block age (Count)
system.cpu.dcache.tags.ageTaskId_1024::3           25                       # Occupied blocks per task id, per block age (Count)
system.cpu.dcache.tags.ratioOccsTaskId::1024            1                       # Ratio of occupied blocks and all blocks, per task id (Ratio)
system.cpu.dcache.tags.tagAccesses         3443820192                       # Number of tag accesses (Count)
system.cpu.dcache.tags.dataAccesses        3443820192                       # Number of data accesses (Count)
system.cpu.dcache.tags.power_state.pwrStateResidencyTicks::UNDEFINED 1179460554000                       # Cumulative time (in ticks) in various power states (Tick)
system.cpu.decode.idleCycles                 72531338                       # Number of cycles decode is idle (Cycle)
system.cpu.decode.blockedCycles            2055607779                       # Number of cycles decode is blocked (Cycle)
system.cpu.decode.runCycles                 148696737                       # Number of cycles decode is running (Cycle)
system.cpu.decode.unblockCycles              80959569                       # Number of cycles decode is unblocking (Cycle)
system.cpu.decode.squashCycles                 750669                       # Number of cycles decode is squashing (Cycle)
system.cpu.decode.branchResolved             86375677                       # Number of times decode resolved a branch (Count)
system.cpu.decode.branchMispred                  2570                       # Number of times decode detected a branch misprediction (Count)
system.cpu.decode.decodedInsts             1671074601                       # Number of instructions handled by decode (Count)
system.cpu.decode.squashedInsts                 11982                       # Number of squashed instructions handled by decode (Count)
system.cpu.dtb_walker_cache.blockedCycles::no_mshrs            0                       # number of cycles access was blocked (Cycle)
system.cpu.dtb_walker_cache.blockedCycles::no_targets            0                       # number of cycles access was blocked (Cycle)
system.cpu.dtb_walker_cache.blockedCauses::no_mshrs            0                       # number of times access was blocked (Count)
system.cpu.dtb_walker_cache.blockedCauses::no_targets            0                       # number of times access was blocked (Count)
system.cpu.dtb_walker_cache.avgBlocked::no_mshrs          nan                       # average number of cycles each access was blocked ((Cycle/Count))
system.cpu.dtb_walker_cache.avgBlocked::no_targets          nan                       # average number of cycles each access was blocked ((Cycle/Count))
system.cpu.dtb_walker_cache.replacements            0                       # number of replacements (Count)
system.cpu.dtb_walker_cache.power_state.pwrStateResidencyTicks::UNDEFINED 1179460554000                       # Cumulative time (in ticks) in various power states (Tick)
system.cpu.dtb_walker_cache.tags.tagsInUse            0                       # Average ticks per tags in use ((Tick/Count))
system.cpu.dtb_walker_cache.tags.totalRefs            0                       # Total number of references to valid blocks. (Count)
system.cpu.dtb_walker_cache.tags.sampledRefs            0                       # Sample count of references to valid blocks. (Count)
system.cpu.dtb_walker_cache.tags.avgRefs          nan                       # Average number of references to valid blocks. ((Count/Count))
system.cpu.dtb_walker_cache.tags.warmupTick            0                       # The tick when the warmup percentage was hit. (Tick)
system.cpu.dtb_walker_cache.tags.tagAccesses            0                       # Number of tag accesses (Count)
system.cpu.dtb_walker_cache.tags.dataAccesses            0                       # Number of data accesses (Count)
system.cpu.dtb_walker_cache.tags.power_state.pwrStateResidencyTicks::UNDEFINED 1179460554000                       # Cumulative time (in ticks) in various power states (Tick)
system.cpu.fetch.icacheStallCycles          114468584                       # Number of cycles fetch is stalled on an Icache miss (Cycle)
system.cpu.fetch.insts                     1025185178                       # Number of instructions fetch has processed (Count)
system.cpu.fetch.branches                    91125613                       # Number of branches that fetch encountered (Count)
system.cpu.fetch.predictedBranches           87856164                       # Number of branches that fetch has predicted taken (Count)
system.cpu.fetch.cycles                    2243314608                       # Number of cycles fetch has run and was not squashing or blocked (Cycle)
system.cpu.fetch.squashCycles                 1506390                       # Number of cycles fetch has spent squashing (Cycle)
system.cpu.fetch.miscStallCycles                 1145                       # Number of cycles fetch has spent waiting on interrupts, or bad addresses, or out of MSHRs (Cycle)
system.cpu.fetch.pendingTrapStallCycles          8560                       # Number of stall cycles due to pending traps (Cycle)
system.cpu.fetch.cacheLines                 114018724                       # Number of cache lines fetched (Count)
system.cpu.fetch.icacheSquashes                135660                       # Number of outstanding Icache misses that were squashed (Count)
system.cpu.fetch.nisnDist::samples         2358546092                       # Number of instructions fetched each cycle (Total) (Count)
system.cpu.fetch.nisnDist::mean              0.716207                       # Number of instructions fetched each cycle (Total) (Count)
system.cpu.fetch.nisnDist::stdev             2.082951                       # Number of instructions fetched each cycle (Total) (Count)
system.cpu.fetch.nisnDist::underflows               0      0.00%      0.00% # Number of instructions fetched each cycle (Total) (Count)
system.cpu.fetch.nisnDist::0               2062559727     87.45%     87.45% # Number of instructions fetched each cycle (Total) (Count)
system.cpu.fetch.nisnDist::1                 18473782      0.78%     88.23% # Number of instructions fetched each cycle (Total) (Count)
system.cpu.fetch.nisnDist::2                 26838489      1.14%     89.37% # Number of instructions fetched each cycle (Total) (Count)
system.cpu.fetch.nisnDist::3                 30197297      1.28%     90.65% # Number of instructions fetched each cycle (Total) (Count)
system.cpu.fetch.nisnDist::4                 25537689      1.08%     91.73% # Number of instructions fetched each cycle (Total) (Count)
system.cpu.fetch.nisnDist::5                 22241874      0.94%     92.68% # Number of instructions fetched each cycle (Total) (Count)
system.cpu.fetch.nisnDist::6                 27514353      1.17%     93.84% # Number of instructions fetched each cycle (Total) (Count)
system.cpu.fetch.nisnDist::7                 13444159      0.57%     94.41% # Number of instructions fetched each cycle (Total) (Count)
system.cpu.fetch.nisnDist::8                131738722      5.59%    100.00% # Number of instructions fetched each cycle (Total) (Count)
system.cpu.fetch.nisnDist::overflows                0      0.00%    100.00% # Number of instructions fetched each cycle (Total) (Count)
system.cpu.fetch.nisnDist::min_value                0                       # Number of instructions fetched each cycle (Total) (Count)
system.cpu.fetch.nisnDist::max_value                8                       # Number of instructions fetched each cycle (Total) (Count)
system.cpu.fetch.nisnDist::total           2358546092                       # Number of instructions fetched each cycle (Total) (Count)
system.cpu.fetch.branchRate                  0.038630                       # Number of branch fetches per cycle (Ratio)
system.cpu.fetch.rate                        0.434599                       # Number of inst fetches per cycle ((Count/Cycle))
system.cpu.icache.demandHits::cpu.inst      114010809                       # number of demand (read+write) hits (Count)
system.cpu.icache.demandHits::total         114010809                       # number of demand (read+write) hits (Count)
system.cpu.icache.overallHits::cpu.inst     114010809                       # number of overall hits (Count)
system.cpu.icache.overallHits::total        114010809                       # number of overall hits (Count)
system.cpu.icache.demandMisses::cpu.inst         7915                       # number of demand (read+write) misses (Count)
system.cpu.icache.demandMisses::total            7915                       # number of demand (read+write) misses (Count)
system.cpu.icache.overallMisses::cpu.inst         7915                       # number of overall misses (Count)
system.cpu.icache.overallMisses::total           7915                       # number of overall misses (Count)
system.cpu.icache.demandMissLatency::cpu.inst    513968000                       # number of demand (read+write) miss ticks (Tick)
system.cpu.icache.demandMissLatency::total    513968000                       # number of demand (read+write) miss ticks (Tick)
system.cpu.icache.overallMissLatency::cpu.inst    513968000                       # number of overall miss ticks (Tick)
system.cpu.icache.overallMissLatency::total    513968000                       # number of overall miss ticks (Tick)
system.cpu.icache.demandAccesses::cpu.inst    114018724                       # number of demand (read+write) accesses (Count)
system.cpu.icache.demandAccesses::total     114018724                       # number of demand (read+write) accesses (Count)
system.cpu.icache.overallAccesses::cpu.inst    114018724                       # number of overall (read+write) accesses (Count)
system.cpu.icache.overallAccesses::total    114018724                       # number of overall (read+write) accesses (Count)
system.cpu.icache.demandMissRate::cpu.inst     0.000069                       # miss rate for demand accesses (Ratio)
system.cpu.icache.demandMissRate::total      0.000069                       # miss rate for demand accesses (Ratio)
system.cpu.icache.overallMissRate::cpu.inst     0.000069                       # miss rate for overall accesses (Ratio)
system.cpu.icache.overallMissRate::total     0.000069                       # miss rate for overall accesses (Ratio)
system.cpu.icache.demandAvgMissLatency::cpu.inst 64935.944409                       # average overall miss latency in ticks ((Tick/Count))
system.cpu.icache.demandAvgMissLatency::total 64935.944409                       # average overall miss latency in ticks ((Tick/Count))
system.cpu.icache.overallAvgMissLatency::cpu.inst 64935.944409                       # average overall miss latency ((Tick/Count))
system.cpu.icache.overallAvgMissLatency::total 64935.944409                       # average overall miss latency ((Tick/Count))
system.cpu.icache.blockedCycles::no_mshrs         1039                       # number of cycles access was blocked (Cycle)
system.cpu.icache.blockedCycles::no_targets            0                       # number of cycles access was blocked (Cycle)
system.cpu.icache.blockedCauses::no_mshrs           10                       # number of times access was blocked (Count)
system.cpu.icache.blockedCauses::no_targets            0                       # number of times access was blocked (Count)
system.cpu.icache.avgBlocked::no_mshrs     103.900000                       # average number of cycles each access was blocked ((Cycle/Count))
system.cpu.icache.avgBlocked::no_targets          nan                       # average number of cycles each access was blocked ((Cycle/Count))
system.cpu.icache.writebacks::writebacks         5941                       # number of writebacks (Count)
system.cpu.icache.writebacks::total              5941                       # number of writebacks (Count)
system.cpu.icache.demandMshrHits::cpu.inst         1458                       # number of demand (read+write) MSHR hits (Count)
system.cpu.icache.demandMshrHits::total          1458                       # number of demand (read+write) MSHR hits (Count)
system.cpu.icache.overallMshrHits::cpu.inst         1458                       # number of overall MSHR hits (Count)
system.cpu.icache.overallMshrHits::total         1458                       # number of overall MSHR hits (Count)
system.cpu.icache.demandMshrMisses::cpu.inst         6457                       # number of demand (read+write) MSHR misses (Count)
system.cpu.icache.demandMshrMisses::total         6457                       # number of demand (read+write) MSHR misses (Count)
system.cpu.icache.overallMshrMisses::cpu.inst         6457                       # number of overall MSHR misses (Count)
system.cpu.icache.overallMshrMisses::total         6457                       # number of overall MSHR misses (Count)
system.cpu.icache.demandMshrMissLatency::cpu.inst    435697000                       # number of demand (read+write) MSHR miss ticks (Tick)
system.cpu.icache.demandMshrMissLatency::total    435697000                       # number of demand (read+write) MSHR miss ticks (Tick)
system.cpu.icache.overallMshrMissLatency::cpu.inst    435697000                       # number of overall MSHR miss ticks (Tick)
system.cpu.icache.overallMshrMissLatency::total    435697000                       # number of overall MSHR miss ticks (Tick)
system.cpu.icache.demandMshrMissRate::cpu.inst     0.000057                       # mshr miss ratio for demand accesses (Ratio)
system.cpu.icache.demandMshrMissRate::total     0.000057                       # mshr miss ratio for demand accesses (Ratio)
system.cpu.icache.overallMshrMissRate::cpu.inst     0.000057                       # mshr miss ratio for overall accesses (Ratio)
system.cpu.icache.overallMshrMissRate::total     0.000057                       # mshr miss ratio for overall accesses (Ratio)
system.cpu.icache.demandAvgMshrMissLatency::cpu.inst 67476.691962                       # average overall mshr miss latency ((Tick/Count))
system.cpu.icache.demandAvgMshrMissLatency::total 67476.691962                       # average overall mshr miss latency ((Tick/Count))
system.cpu.icache.overallAvgMshrMissLatency::cpu.inst 67476.691962                       # average overall mshr miss latency ((Tick/Count))
system.cpu.icache.overallAvgMshrMissLatency::total 67476.691962                       # average overall mshr miss latency ((Tick/Count))
system.cpu.icache.replacements                   5941                       # number of replacements (Count)
system.cpu.icache.ReadReq.hits::cpu.inst    114010809                       # number of ReadReq hits (Count)
system.cpu.icache.ReadReq.hits::total       114010809                       # number of ReadReq hits (Count)
system.cpu.icache.ReadReq.misses::cpu.inst         7915                       # number of ReadReq misses (Count)
system.cpu.icache.ReadReq.misses::total          7915                       # number of ReadReq misses (Count)
system.cpu.icache.ReadReq.missLatency::cpu.inst    513968000                       # number of ReadReq miss ticks (Tick)
system.cpu.icache.ReadReq.missLatency::total    513968000                       # number of ReadReq miss ticks (Tick)
system.cpu.icache.ReadReq.accesses::cpu.inst    114018724                       # number of ReadReq accesses(hits+misses) (Count)
system.cpu.icache.ReadReq.accesses::total    114018724                       # number of ReadReq accesses(hits+misses) (Count)
system.cpu.icache.ReadReq.missRate::cpu.inst     0.000069                       # miss rate for ReadReq accesses (Ratio)
system.cpu.icache.ReadReq.missRate::total     0.000069                       # miss rate for ReadReq accesses (Ratio)
system.cpu.icache.ReadReq.avgMissLatency::cpu.inst 64935.944409                       # average ReadReq miss latency ((Tick/Count))
system.cpu.icache.ReadReq.avgMissLatency::total 64935.944409                       # average ReadReq miss latency ((Tick/Count))
system.cpu.icache.ReadReq.mshrHits::cpu.inst         1458                       # number of ReadReq MSHR hits (Count)
system.cpu.icache.ReadReq.mshrHits::total         1458                       # number of ReadReq MSHR hits (Count)
system.cpu.icache.ReadReq.mshrMisses::cpu.inst         6457                       # number of ReadReq MSHR misses (Count)
system.cpu.icache.ReadReq.mshrMisses::total         6457                       # number of ReadReq MSHR misses (Count)
system.cpu.icache.ReadReq.mshrMissLatency::cpu.inst    435697000                       # number of ReadReq MSHR miss ticks (Tick)
system.cpu.icache.ReadReq.mshrMissLatency::total    435697000                       # number of ReadReq MSHR miss ticks (Tick)
system.cpu.icache.ReadReq.mshrMissRate::cpu.inst     0.000057                       # mshr miss rate for ReadReq accesses (Ratio)
system.cpu.icache.ReadReq.mshrMissRate::total     0.000057                       # mshr miss rate for ReadReq accesses (Ratio)
system.cpu.icache.ReadReq.avgMshrMissLatency::cpu.inst 67476.691962                       # average ReadReq mshr miss latency ((Tick/Count))
system.cpu.icache.ReadReq.avgMshrMissLatency::total 67476.691962                       # average ReadReq mshr miss latency ((Tick/Count))
system.cpu.icache.power_state.pwrStateResidencyTicks::UNDEFINED 1179460554000                       # Cumulative time (in ticks) in various power states (Tick)
system.cpu.icache.tags.tagsInUse           511.988991                       # Average ticks per tags in use ((Tick/Count))
system.cpu.icache.tags.totalRefs            114017266                       # Total number of references to valid blocks. (Count)
system.cpu.icache.tags.sampledRefs               6457                       # Sample count of references to valid blocks. (Count)
system.cpu.icache.tags.avgRefs           17657.931857                       # Average number of references to valid blocks. ((Count/Count))
system.cpu.icache.tags.warmupTick               77000                       # The tick when the warmup percentage was hit. (Tick)
system.cpu.icache.tags.occupancies::cpu.inst   511.988991                       # Average occupied blocks per tick, per requestor ((Count/Tick))
system.cpu.icache.tags.avgOccs::cpu.inst     0.999978                       # Average percentage of cache occupancy ((Ratio/Tick))
system.cpu.icache.tags.avgOccs::total        0.999978                       # Average percentage of cache occupancy ((Ratio/Tick))
system.cpu.icache.tags.occupanciesTaskId::1024          512                       # Occupied blocks per task id (Count)
system.cpu.icache.tags.ageTaskId_1024::3           60                       # Occupied blocks per task id, per block age (Count)
system.cpu.icache.tags.ageTaskId_1024::4          452                       # Occupied blocks per task id, per block age (Count)
system.cpu.icache.tags.ratioOccsTaskId::1024            1                       # Ratio of occupied blocks and all blocks, per task id (Ratio)
system.cpu.icache.tags.tagAccesses          912156249                       # Number of tag accesses (Count)
system.cpu.icache.tags.dataAccesses         912156249                       # Number of data accesses (Count)
system.cpu.icache.tags.power_state.pwrStateResidencyTicks::UNDEFINED 1179460554000                       # Cumulative time (in ticks) in various power states (Tick)
system.cpu.iew.idleCycles                           0                       # Number of cycles IEW is idle (Cycle)
system.cpu.iew.squashCycles                    750669                       # Number of cycles IEW is squashing (Cycle)
system.cpu.iew.blockCycles                  227660871                       # Number of cycles IEW is blocking (Cycle)
system.cpu.iew.unblockCycles                282845845                       # Number of cycles IEW is unblocking (Cycle)
system.cpu.iew.dispatchedInsts             1662304233                       # Number of instructions dispatched to IQ (Count)
system.cpu.iew.dispSquashedInsts               302017                       # Number of squashed instructions skipped by dispatch (Count)
system.cpu.iew.dispLoadInsts                309398989                       # Number of dispatched load instructions (Count)
system.cpu.iew.dispStoreInsts               122749699                       # Number of dispatched store instructions (Count)
system.cpu.iew.dispNonSpecInsts                   595                       # Number of dispatched non-speculative instructions (Count)
system.cpu.iew.iqFullEvents                   3105165                       # Number of times the IQ has become full, causing a stall (Count)
system.cpu.iew.lsqFullEvents                276712519                       # Number of times the LSQ has become full, causing a stall (Count)
system.cpu.iew.memOrderViolationEvents           9477                       # Number of memory order violations (Count)
system.cpu.iew.predictedTakenIncorrect         811307                       # Number of branches that were predicted taken incorrectly (Count)
system.cpu.iew.predictedNotTakenIncorrect        12157                       # Number of branches that were predicted not taken incorrectly (Count)
system.cpu.iew.branchMispredicts               823464                       # Number of branch mispredicts detected at execute (Count)
system.cpu.iew.instsToCommit               1656074963                       # Cumulative count of insts sent to commit (Count)
system.cpu.iew.writebackCount              1655133990                       # Cumulative count of insts written-back (Count)
system.cpu.iew.producerInst                1168535107                       # Number of instructions producing a value (Count)
system.cpu.iew.consumerInst                1804779120                       # Number of instructions consuming a value (Count)
system.cpu.iew.wbRate                        0.701649                       # Insts written-back per cycle ((Count/Cycle))
system.cpu.iew.wbFanout                      0.647467                       # Average fanout of values written-back ((Count/Count))
system.cpu.interrupts.clk_domain.clock           8000                       # Clock period in ticks (Tick)
system.cpu.itb_walker_cache.blockedCycles::no_mshrs            0                       # number of cycles access was blocked (Cycle)
system.cpu.itb_walker_cache.blockedCycles::no_targets            0                       # number of cycles access was blocked (Cycle)
system.cpu.itb_walker_cache.blockedCauses::no_mshrs            0                       # number of times access was blocked (Count)
system.cpu.itb_walker_cache.blockedCauses::no_targets            0                       # number of times access was blocked (Count)
system.cpu.itb_walker_cache.avgBlocked::no_mshrs          nan                       # average number of cycles each access was blocked ((Cycle/Count))
system.cpu.itb_walker_cache.avgBlocked::no_targets          nan                       # average number of cycles each access was blocked ((Cycle/Count))
system.cpu.itb_walker_cache.replacements            0                       # number of replacements (Count)
system.cpu.itb_walker_cache.power_state.pwrStateResidencyTicks::UNDEFINED 1179460554000                       # Cumulative time (in ticks) in various power states (Tick)
system.cpu.itb_walker_cache.tags.tagsInUse            0                       # Average ticks per tags in use ((Tick/Count))
system.cpu.itb_walker_cache.tags.totalRefs            0                       # Total number of references to valid blocks. (Count)
system.cpu.itb_walker_cache.tags.sampledRefs            0                       # Sample count of references to valid blocks. (Count)
system.cpu.itb_walker_cache.tags.avgRefs          nan                       # Average number of references to valid blocks. ((Count/Count))
system.cpu.itb_walker_cache.tags.warmupTick            0                       # The tick when the warmup percentage was hit. (Tick)
system.cpu.itb_walker_cache.tags.tagAccesses            0                       # Number of tag accesses (Count)
system.cpu.itb_walker_cache.tags.dataAccesses            0                       # Number of data accesses (Count)
system.cpu.itb_walker_cache.tags.power_state.pwrStateResidencyTicks::UNDEFINED 1179460554000                       # Cumulative time (in ticks) in various power states (Tick)
system.cpu.lsq0.forwLoads                     3369635                       # Number of loads that had data forwarded from stores (Count)
system.cpu.lsq0.squashedLoads                 2076209                       # Number of loads squashed (Count)
system.cpu.lsq0.ignoredResponses                  223                       # Number of memory responses ignored because the instruction is squashed (Count)
system.cpu.lsq0.memOrderViolation                9477                       # Number of memory ordering violations (Count)
system.cpu.lsq0.squashedStores                1632513                       # Number of stores squashed (Count)
system.cpu.lsq0.rescheduledLoads                  163                       # Number of loads that were rescheduled (Count)
system.cpu.lsq0.blockedByCache                9478009                       # Number of times an access to memory failed due to the cache being blocked (Count)
system.cpu.lsq0.loadToUse::samples          307322752                       # Distribution of cycle latency between the first time a load is issued and its completion (Unspecified)
system.cpu.lsq0.loadToUse::mean             44.443993                       # Distribution of cycle latency between the first time a load is issued and its completion (Unspecified)
[...]
system.mem_ctrls.dram.bwTotal::writebacks    727065997                       # Total bandwidth to/from this memory ((Byte/Second))
system.mem_ctrls.dram.bwTotal::cpu.inst        350045                       # Total bandwidth to/from this memory ((Byte/Second))
system.mem_ctrls.dram.bwTotal::cpu.data    1766451696                       # Total bandwidth to/from this memory ((Byte/Second))
system.mem_ctrls.dram.bwTotal::total       2493867738                       # Total bandwidth to/from this memory ((Byte/Second))
system.mem_ctrls.dram.readBursts             32083622                       # Number of DRAM read bursts (Count)
system.mem_ctrls.dram.writeBursts            13395510                       # Number of DRAM write bursts (Count)
system.mem_ctrls.dram.perBankRdBursts::0      1733763                       # Per bank write bursts (Count)
system.mem_ctrls.dram.perBankRdBursts::1      1908752                       # Per bank write bursts (Count)
system.mem_ctrls.dram.perBankRdBursts::2      1757962                       # Per bank write bursts (Count)
system.mem_ctrls.dram.perBankRdBursts::3      2463947                       # Per bank write bursts (Count)
system.mem_ctrls.dram.perBankRdBursts::4      2612441                       # Per bank write bursts (Count)
system.mem_ctrls.dram.perBankRdBursts::5      2346109                       # Per bank write bursts (Count)
system.mem_ctrls.dram.perBankRdBursts::6      2675157                       # Per bank write bursts (Count)
system.mem_ctrls.dram.perBankRdBursts::7      1848686                       # Per bank write bursts (Count)
system.mem_ctrls.dram.perBankRdBursts::8      1884935                       # Per bank write bursts (Count)
system.mem_ctrls.dram.perBankRdBursts::9      1880286                       # Per bank write bursts (Count)
system.mem_ctrls.dram.perBankRdBursts::10      1877104                       # Per bank write bursts (Count)
system.mem_ctrls.dram.perBankRdBursts::11      1873594                       # Per bank write bursts (Count)
system.mem_ctrls.dram.perBankRdBursts::12      1883861                       # Per bank write bursts (Count)
system.mem_ctrls.dram.perBankRdBursts::13      1866459                       # Per bank write bursts (Count)
system.mem_ctrls.dram.perBankRdBursts::14      1739237                       # Per bank write bursts (Count)
system.mem_ctrls.dram.perBankRdBursts::15      1731329                       # Per bank write bursts (Count)
system.mem_ctrls.dram.perBankWrBursts::0       619922                       # Per bank write bursts (Count)
system.mem_ctrls.dram.perBankWrBursts::1       678970                       # Per bank write bursts (Count)
system.mem_ctrls.dram.perBankWrBursts::2       626708                       # Per bank write bursts (Count)
system.mem_ctrls.dram.perBankWrBursts::3      1371559                       # Per bank write bursts (Count)
system.mem_ctrls.dram.perBankWrBursts::4      1422713                       # Per bank write bursts (Count)
system.mem_ctrls.dram.perBankWrBursts::5      1168424                       # Per bank write bursts (Count)
system.mem_ctrls.dram.perBankWrBursts::6      1452900                       # Per bank write bursts (Count)
system.mem_ctrls.dram.perBankWrBursts::7       670751                       # Per bank write bursts (Count)
system.mem_ctrls.dram.perBankWrBursts::8       699753                       # Per bank write bursts (Count)
system.mem_ctrls.dram.perBankWrBursts::9       700654                       # Per bank write bursts (Count)
system.mem_ctrls.dram.perBankWrBursts::10       697911                       # Per bank write bursts (Count)
system.mem_ctrls.dram.perBankWrBursts::11       691935                       # Per bank write bursts (Count)
system.mem_ctrls.dram.perBankWrBursts::12       695829                       # Per bank write bursts (Count)
system.mem_ctrls.dram.perBankWrBursts::13       663953                       # Per bank write bursts (Count)
system.mem_ctrls.dram.perBankWrBursts::14       616743                       # Per bank write bursts (Count)
system.mem_ctrls.dram.perBankWrBursts::15       616785                       # Per bank write bursts (Count)
system.mem_ctrls.dram.totQLat            696461223250                       # Total ticks spent queuing (Tick)
system.mem_ctrls.dram.totBusLat          160418110000                       # Total ticks spent in databus transfers (Tick)
system.mem_ctrls.dram.totMemAccLat       1298029135750                       # Total ticks spent from burst creation until serviced by the DRAM (Tick)
system.mem_ctrls.dram.avgQLat                21707.69                       # Average queueing delay per DRAM burst ((Tick/Count))
system.mem_ctrls.dram.avgBusLat               5000.00                       # Average bus latency per DRAM burst ((Tick/Count))
system.mem_ctrls.dram.avgMemAccLat           40457.69                       # Average memory access latency per DRAM burst ((Tick/Count))
system.mem_ctrls.dram.readRowHits            22040215                       # Number of row buffer hits during reads (Count)
system.mem_ctrls.dram.writeRowHits           12078960                       # Number of row buffer hits during writes (Count)
system.mem_ctrls.dram.readRowHitRate            68.70                       # Row buffer hit rate for reads (Ratio)
system.mem_ctrls.dram.writeRowHitRate           90.17                       # Row buffer hit rate for writes (Ratio)
system.mem_ctrls.dram.bytesPerActivate::samples     11359945                       # Bytes accessed per row activation (Byte)
system.mem_ctrls.dram.bytesPerActivate::mean   256.221207                       # Bytes accessed per row activation (Byte)
system.mem_ctrls.dram.bytesPerActivate::gmean   128.784453                       # Bytes accessed per row activation (Byte)
system.mem_ctrls.dram.bytesPerActivate::stdev   340.418140                       # Bytes accessed per row activation (Byte)
system.mem_ctrls.dram.bytesPerActivate::0-127      7396906     65.11%     65.11% # Bytes accessed per row activation (Byte)
system.mem_ctrls.dram.bytesPerActivate::128-255       948092      8.35%     73.46% # Bytes accessed per row activation (Byte)
system.mem_ctrls.dram.bytesPerActivate::256-383       459390      4.04%     77.50% # Bytes accessed per row activation (Byte)
system.mem_ctrls.dram.bytesPerActivate::384-511       321542      2.83%     80.33% # Bytes accessed per row activation (Byte)
system.mem_ctrls.dram.bytesPerActivate::512-639       252078      2.22%     82.55% # Bytes accessed per row activation (Byte)
system.mem_ctrls.dram.bytesPerActivate::640-767       218338      1.92%     84.48% # Bytes accessed per row activation (Byte)
system.mem_ctrls.dram.bytesPerActivate::768-895       185434      1.63%     86.11% # Bytes accessed per row activation (Byte)
system.mem_ctrls.dram.bytesPerActivate::896-1023       157721      1.39%     87.50% # Bytes accessed per row activation (Byte)
system.mem_ctrls.dram.bytesPerActivate::1024-1151      1420444     12.50%    100.00% # Bytes accessed per row activation (Byte)
system.mem_ctrls.dram.bytesPerActivate::total     11359945                       # Bytes accessed per row activation (Byte)
system.mem_ctrls.dram.bytesRead            2053351808                       # Total bytes read (Byte)
system.mem_ctrls.dram.bytesWritten          857312640                       # Total bytes written (Byte)
system.mem_ctrls.dram.avgRdBW             1740.924528                       # Average DRAM read bandwidth in MiBytes/s ((Byte/Second))
system.mem_ctrls.dram.avgWrBW              726.868429                       # Average DRAM write bandwidth in MiBytes/s ((Byte/Second))
system.mem_ctrls.dram.peakBW                 12800.00                       # Theoretical peak bandwidth in MiByte/s ((Byte/Second))
system.mem_ctrls.dram.busUtil                   19.28                       # Data bus utilization in percentage (Ratio)
system.mem_ctrls.dram.busUtilRead               13.60                       # Data bus utilization in percentage for reads (Ratio)
system.mem_ctrls.dram.busUtilWrite               5.68                       # Data bus utilization in percentage for writes (Ratio)
system.mem_ctrls.dram.pageHitRate               75.02                       # Row buffer hit rate, read and write combined (Ratio)
system.mem_ctrls.dram.power_state.pwrStateResidencyTicks::UNDEFINED 1179460554000                       # Cumulative time (in ticks) in various power states (Tick)
system.mem_ctrls.dram.rank0.actEnergy     45470782980                       # Energy for activate commands per rank (pJ) (Joule)
system.mem_ctrls.dram.rank0.preEnergy     24168275340                       # Energy for precharge commands per rank (pJ) (Joule)
system.mem_ctrls.dram.rank0.readEnergy   123856273380                       # Energy for read commands per rank (pJ) (Joule)
system.mem_ctrls.dram.rank0.writeEnergy   41822363340                       # Energy for write commands per rank (pJ) (Joule)
system.mem_ctrls.dram.rank0.refreshEnergy 93105052560.000015                       # Energy for refresh commands per rank (pJ) (Joule)
system.mem_ctrls.dram.rank0.actBackEnergy 488204216820                       # Energy for active background per rank (pJ) (Joule)
system.mem_ctrls.dram.rank0.preBackEnergy  41793512640                       # Energy for precharge background per rank (pJ) (Joule)
system.mem_ctrls.dram.rank0.actPowerDownEnergy            0                       # Energy for active power-down per rank (pJ) (Joule)
system.mem_ctrls.dram.rank0.prePowerDownEnergy            0                       # Energy for precharge power-down per rank (pJ) (Joule)
system.mem_ctrls.dram.rank0.selfRefreshEnergy            0                       # Energy for self refresh per rank (pJ) (Joule)
system.mem_ctrls.dram.rank0.totalEnergy  858420477060                       # Total energy per rank (pJ) (Joule)
system.mem_ctrls.dram.rank0.averagePower   727.807703                       # Core power per rank (mW) (Watt)
system.mem_ctrls.dram.rank0.totalIdleTime            0                       # Total Idle time Per DRAM Rank (Tick)
system.mem_ctrls.dram.rank0.pwrStateTime::IDLE 101403009250                       # Time in different power states (Tick)
system.mem_ctrls.dram.rank0.pwrStateTime::REF  39384540000                       # Time in different power states (Tick)
system.mem_ctrls.dram.rank0.pwrStateTime::SREF            0                       # Time in different power states (Tick)
system.mem_ctrls.dram.rank0.pwrStateTime::PRE_PDN            0                       # Time in different power states (Tick)
system.mem_ctrls.dram.rank0.pwrStateTime::ACT 1038673004750                       # Time in different power states (Tick)
system.mem_ctrls.dram.rank0.pwrStateTime::ACT_PDN            0                       # Time in different power states (Tick)
system.mem_ctrls.dram.rank1.actEnergy     35639310000                       # Energy for activate commands per rank (pJ) (Joule)
system.mem_ctrls.dram.rank1.preEnergy     18942715935                       # Energy for precharge commands per rank (pJ) (Joule)
system.mem_ctrls.dram.rank1.readEnergy   105220787700                       # Energy for read commands per rank (pJ) (Joule)
system.mem_ctrls.dram.rank1.writeEnergy   28102198860                       # Energy for write commands per rank (pJ) (Joule)
system.mem_ctrls.dram.rank1.refreshEnergy 93105052560.000015                       # Energy for refresh commands per rank (pJ) (Joule)
system.mem_ctrls.dram.rank1.actBackEnergy 483543585030                       # Energy for active background per rank (pJ) (Joule)
system.mem_ctrls.dram.rank1.preBackEnergy  45718255200                       # Energy for precharge background per rank (pJ) (Joule)
system.mem_ctrls.dram.rank1.actPowerDownEnergy            0                       # Energy for active power-down per rank (pJ) (Joule)
system.mem_ctrls.dram.rank1.prePowerDownEnergy            0                       # Energy for precharge power-down per rank (pJ) (Joule)
system.mem_ctrls.dram.rank1.selfRefreshEnergy            0                       # Energy for self refresh per rank (pJ) (Joule)
system.mem_ctrls.dram.rank1.totalEnergy  810271905285                       # Total energy per rank (pJ) (Joule)
system.mem_ctrls.dram.rank1.averagePower   686.985167                       # Core power per rank (mW) (Watt)
system.mem_ctrls.dram.rank1.totalIdleTime            0                       # Total Idle time Per DRAM Rank (Tick)
system.mem_ctrls.dram.rank1.pwrStateTime::IDLE 111476136000                       # Time in different power states (Tick)
system.mem_ctrls.dram.rank1.pwrStateTime::REF  39384540000                       # Time in different power states (Tick)
system.mem_ctrls.dram.rank1.pwrStateTime::SREF            0                       # Time in different power states (Tick)
system.mem_ctrls.dram.rank1.pwrStateTime::PRE_PDN            0                       # Time in different power states (Tick)
system.mem_ctrls.dram.rank1.pwrStateTime::ACT 1028599878000                       # Time in different power states (Tick)
system.mem_ctrls.dram.rank1.pwrStateTime::ACT_PDN            0                       # Time in different power states (Tick)
system.mem_ctrls.power_state.pwrStateResidencyTicks::UNDEFINED 1179460554000                       # Cumulative time (in ticks) in various power states (Tick)
system.membus.transDist::ReadResp            21356887                       # Transaction distribution (Count)
system.membus.transDist::WritebackDirty      13399151                       # Transaction distribution (Count)
system.membus.transDist::WritebackClean          5941                       # Transaction distribution (Count)
system.membus.transDist::CleanEvict          19154401                       # Transaction distribution (Count)
system.membus.transDist::UpgradeReq                 4                       # Transaction distribution (Count)
system.membus.transDist::ReadExReq           11203634                       # Transaction distribution (Count)
system.membus.transDist::ReadExResp          11203634                       # Transaction distribution (Count)
system.membus.transDist::ReadCleanReq            6457                       # Transaction distribution (Count)
system.membus.transDist::ReadSharedReq       21350430                       # Transaction distribution (Count)
system.membus.pktCount_system.cpu.icache.mem_side_port::system.mem_ctrls.port        18849                       # Packet count per connected requestor and responder (Count)
system.membus.pktCount_system.cpu.icache.mem_side_port::total        18849                       # Packet count per connected requestor and responder (Count)
system.membus.pktCount_system.cpu.dcache.mem_side_port::system.mem_ctrls.port     97661684                       # Packet count per connected requestor and responder (Count)
system.membus.pktCount_system.cpu.dcache.mem_side_port::total     97661684                       # Packet count per connected requestor and responder (Count)
system.membus.pktCount::total                97680533                       # Packet count per connected requestor and responder (Count)
system.membus.pktSize_system.cpu.icache.mem_side_port::system.mem_ctrls.port       793088                       # Cumulative packet size per connected requestor and responder (Byte)
system.membus.pktSize_system.cpu.icache.mem_side_port::total       793088                       # Cumulative packet size per connected requestor and responder (Byte)
system.membus.pktSize_system.cpu.dcache.mem_side_port::system.mem_ctrls.port   2941005760                       # Cumulative packet size per connected requestor and responder (Byte)
system.membus.pktSize_system.cpu.dcache.mem_side_port::total   2941005760                       # Cumulative packet size per connected requestor and responder (Byte)
system.membus.pktSize::total               2941798848                       # Cumulative packet size per connected requestor and responder (Byte)
system.membus.snoops                                6                       # Total snoops (Count)
system.membus.snoopTraffic                        384                       # Total snoop traffic (Byte)
system.membus.snoopFanout::samples           32560525                       # Request fanout histogram (Count)
system.membus.snoopFanout::mean              0.000301                       # Request fanout histogram (Count)
system.membus.snoopFanout::stdev             0.017337                       # Request fanout histogram (Count)
system.membus.snoopFanout::underflows               0      0.00%      0.00% # Request fanout histogram (Count)
system.membus.snoopFanout::0                 32550735     99.97%     99.97% # Request fanout histogram (Count)
system.membus.snoopFanout::1                     9790      0.03%    100.00% # Request fanout histogram (Count)
system.membus.snoopFanout::2                        0      0.00%    100.00% # Request fanout histogram (Count)
system.membus.snoopFanout::3                        0      0.00%    100.00% # Request fanout histogram (Count)
system.membus.snoopFanout::4                        0      0.00%    100.00% # Request fanout histogram (Count)
system.membus.snoopFanout::overflows                0      0.00%    100.00% # Request fanout histogram (Count)
system.membus.snoopFanout::min_value                0                       # Request fanout histogram (Count)
system.membus.snoopFanout::max_value                1                       # Request fanout histogram (Count)
system.membus.snoopFanout::total             32560525                       # Request fanout histogram (Count)
system.membus.power_state.pwrStateResidencyTicks::UNDEFINED 1179460554000                       # Cumulative time (in ticks) in various power states (Tick)
system.membus.reqLayer2.occupancy        122126444500                       # Layer occupancy (ticks) (Tick)
system.membus.reqLayer2.utilization               0.1                       # Layer utilization (Ratio)
system.membus.respLayer1.occupancy           34403499                       # Layer occupancy (ticks) (Tick)
system.membus.respLayer1.utilization              0.0                       # Layer utilization (Ratio)
system.membus.respLayer2.occupancy       173699633500                       # Layer occupancy (ticks) (Tick)
system.membus.respLayer2.utilization              0.1                       # Layer utilization (Ratio)
system.membus.snoop_filter.totRequests       65120018                       # Total number of requests made to the snoop filter. (Count)
system.membus.snoop_filter.hitSingleRequests     32559493                       # Number of requests hitting in the snoop filter with a single holder of the requested data. (Count)
system.membus.snoop_filter.hitMultiRequests         9790                       # Number of requests hitting in the snoop filter with multiple (>1) holders of the requested data. (Count)
system.membus.snoop_filter.totSnoops                0                       # Total number of snoops made to the snoop filter. (Count)
system.membus.snoop_filter.hitSingleSnoops            0                       # Number of snoops hitting in the snoop filter with a single holder of the requested data. (Count)
system.membus.snoop_filter.hitMultiSnoops            0                       # Number of snoops hitting in the snoop filter with multiple (>1) holders of the requested data. (Count)
system.voltage_domain.voltage                       1                       # Voltage in Volts (Volt)
system.workload.inst.arm                            0                       # number of arm instructions executed (Count)
system.workload.inst.quiesce                        0                       # number of quiesce instructions executed (Count)

---------- End Simulation Statistics   ----------
