
---------- Begin Simulation Statistics ----------
simSeconds                                   0.945111                       # Number of seconds simulated (Second)
simTicks                                 945110996000                       # Number of ticks simulated (Tick)
finalTick                                945110996000                       # Number of ticks from beginning of simulation (restored from checkpoints and never reset) (Tick)
simFreq                                  1000000000000                       # The number of ticks per simulated second ((Tick/Second))
hostSeconds                                  11462.01                       # Real time elapsed on the host (Second)
hostTickRate                                 82455934                       # The number of ticks simulated per host second (ticks/s) ((Tick/Second))
hostMemory                                    8733296                       # Number of bytes of host memory used (Byte)
simInsts                                   1000000003                       # Number of instructions simulated (Count)
simOps                                     1894218711                       # Number of ops (including micro ops) simulated (Count)
hostInstRate                                    87245                       # Simulator instruction rate (inst/s) ((Count/Second))
hostOpRate                                     165261                       # Simulator op (including micro ops) rate (op/s) ((Count/Second))
system.clk_domain.clock                          1000                       # Clock period in ticks (Tick)
system.cpu.numCycles                       1890221993                       # Number of cpu cycles simulated (Cycle)
system.cpu.numWorkItemsStarted                      0                       # Number of work items this cpu started (Count)
system.cpu.numWorkItemsCompleted                    0                       # Number of work items this cpu completed (Count)
system.cpu.instsAdded                      2471322291                       # Number of instructions added to the IQ (excludes non-spec) (Count)
system.cpu.nonSpecInstsAdded                      446                       # Number of non-speculative instructions added to the IQ (Count)
system.cpu.instsIssued                     2300505397                       # Number of instructions issued (Count)
system.cpu.squashedInstsIssued               16445146                       # Number of squashed instructions issued (Count)
system.cpu.squashedInstsExamined            577104010                       # Number of squashed instructions iterated over during squash; mainly for profiling (Count)
system.cpu.squashedOperandsExamined         953728381                       # Number of squashed operands that are examined and possibly removed from graph (Count)
system.cpu.squashedNonSpecRemoved                 224                       # Number of squashed non-spec instructions that were removed (Count)
system.cpu.numIssuedDist::samples          1886371382                       # Number of insts issued each cycle (Count)
system.cpu.numIssuedDist::mean               1.219540                       # Number of insts issued each cycle (Count)
system.cpu.numIssuedDist::stdev              2.149595                       # Number of insts issued each cycle (Count)
system.cpu.numIssuedDist::underflows                0      0.00%      0.00% # Number of insts issued each cycle (Count)
system.cpu.numIssuedDist::0                1278435480     67.77%     67.77% # Number of insts issued each cycle (Count)
system.cpu.numIssuedDist::1                 140399480      7.44%     75.22% # Number of insts issued each cycle (Count)
system.cpu.numIssuedDist::2                  69984489      3.71%     78.93% # Number of insts issued each cycle (Count)
system.cpu.numIssuedDist::3                  73814807      3.91%     82.84% # Number of insts issued each cycle (Count)
system.cpu.numIssuedDist::4                  75703683      4.01%     86.85% # Number of insts issued each cycle (Count)
system.cpu.numIssuedDist::5                  79393670      4.21%     91.06% # Number of insts issued each cycle (Count)
system.cpu.numIssuedDist::6                 100718379      5.34%     96.40% # Number of insts issued each cycle (Count)
system.cpu.numIssuedDist::7                  48771990      2.59%     98.98% # Number of insts issued each cycle (Count)
system.cpu.numIssuedDist::8                  19149404      1.02%    100.00% # Number of insts issued each cycle (Count)
system.cpu.numIssuedDist::overflows                 0      0.00%    100.00% # Number of insts issued each cycle (Count)
system.cpu.numIssuedDist::min_value                 0                       # Number of insts issued each cycle (Count)
system.cpu.numIssuedDist::max_value                 8                       # Number of insts issued each cycle (Count)
system.cpu.numIssuedDist::total            1886371382                       # Number of insts issued each cycle (Count)
system.cpu.statFuBusy::No_OpClass                   0      0.00%      0.00% # attempts to use FU when none available (Count)
system.cpu.statFuBusy::IntAlu                62855971     90.28%     90.28% # attempts to use FU when none available (Count)
system.cpu.statFuBusy::IntMult                      0      0.00%     90.28% # attempts to use FU when none available (Count)
system.cpu.statFuBusy::IntDiv                       0      0.00%     90.28% # attempts to use FU when none available (Count)
system.cpu.statFuBusy::FloatAdd                     0      0.00%     90.28% # attempts to use FU when none available (Count)
system.cpu.statFuBusy::FloatCmp                     0      0.00%     90.28% # attempts to use FU when none available (Count)
system.cpu.statFuBusy::FloatCvt                     0      0.00%     90.28% # attempts to use FU when none available (Count)
system.cpu.statFuBusy::FloatMult                    0      0.00%     90.28% # attempts to use FU when none available (Count)
system.cpu.statFuBusy::FloatMultAcc                 0      0.00%     90.28% # attempts to use FU when none available (Count)
system.cpu.statFuBusy::FloatDiv                     0      0.00%     90.28% # attempts to use FU when none available (Count)
system.cpu.statFuBusy::FloatMisc                    0      0.00%     90.28% # attempts to use FU when none available (Count)
system.cpu.statFuBusy::FloatSqrt                    0      0.00%     90.28% # attempts to use FU when none available (Count)
system.cpu.statFuBusy::SimdAdd                      0      0.00%     90.28% # attempts to use FU when none available (Count)
system.cpu.statFuBusy::SimdAddAcc                   0      0.00%     90.28% # attempts to use FU when none available (Count)
system.cpu.statFuBusy::SimdAlu                     19      0.00%     90.28% # attempts to use FU when none available (Count)
system.cpu.statFuBusy::SimdCmp                      0      0.00%     90.28% # attempts to use FU when none available (Count)
system.cpu.statFuBusy::SimdCvt                      2      0.00%     90.28% # attempts to use FU when none available (Count)
system.cpu.statFuBusy::SimdMisc                    13      0.00%     90.28% # attempts to use FU when none available (Count)
system.cpu.statFuBusy::SimdMult                     0      0.00%     90.28% # attempts to use FU when none available (Count)
system.cpu.statFuBusy::SimdMultAcc                  0      0.00%     90.28% # attempts to use FU when none available (Count)
system.cpu.statFuBusy::SimdShift                    0      0.00%     90.28% # attempts to use FU when none available (Count)
system.cpu.statFuBusy::SimdShiftAcc                 0      0.00%     90.28% # attempts to use FU when none available (Count)
system.cpu.statFuBusy::SimdDiv                      0      0.00%     90.28% # attempts to use FU when none available (Count)
system.cpu.statFuBusy::SimdSqrt                     0      0.00%     90.28% # attempts to use FU when none available (Count)
system.cpu.statFuBusy::SimdFloatAdd                 0      0.00%     90.28% # attempts to use FU when none available (Count)
system.cpu.statFuBusy::SimdFloatAlu                 0      0.00%     90.28% # attempts to use FU when none available (Count)
system.cpu.statFuBusy::SimdFloatCmp                 0      0.00%     90.28% # attempts to use FU when none available (Count)
system.cpu.statFuBusy::SimdFloatCvt                 0      0.00%     90.28% # attempts to use FU when none available (Count)
system.cpu.statFuBusy::SimdFloatDiv                 0      0.00%     90.28% # attempts to use FU when none available (Count)
system.cpu.statFuBusy::SimdFloatMisc                0      0.00%     90.28% # attempts to use FU when none available (Count)
system.cpu.statFuBusy::SimdFloatMult                0      0.00%     90.28% # attempts to use FU when none available (Count)
system.cpu.statFuBusy::SimdFloatMultAcc             0      0.00%     90.28% # attempts to use FU when none available (Count)
system.cpu.statFuBusy::SimdFloatSqrt                0      0.00%     90.28% # attempts to use FU when none available (Count)
system.cpu.statFuBusy::SimdReduceAdd                0      0.00%     90.28% # attempts to use FU when none available (Count)
system.cpu.statFuBusy::SimdReduceAlu                0      0.00%     90.28% # attempts to use FU when none available (Count)
system.cpu.statFuBusy::SimdReduceCmp                0      0.00%     90.28% # attempts to use FU when none available (Count)
system.cpu.statFuBusy::SimdFloatReduceAdd            0      0.00%     90.28% # attempts to use FU when none available (Count)
system.cpu.statFuBusy::SimdFloatReduceCmp            0      0.00%     90.28% # attempts to use FU when none available (Count)
system.cpu.statFuBusy::SimdAes                      0      0.00%     90.28% # attempts to use FU when none available (Count)
system.cpu.statFuBusy::SimdAesMix                   0      0.00%     90.28% # attempts to use FU when none available (Count)
system.cpu.statFuBusy::SimdSha1Hash                 0      0.00%     90.28% # attempts to use FU when none available (Count)
system.cpu.statFuBusy::SimdSha1Hash2                0      0.00%     90.28% # attempts to use FU when none available (Count)
system.cpu.statFuBusy::SimdSha256Hash               0      0.00%     90.28% # attempts to use FU when none available (Count)
system.cpu.statFuBusy::SimdSha256Hash2              0      0.00%     90.28% # attempts to use FU when none available (Count)
system.cpu.statFuBusy::SimdShaSigma2                0      0.00%     90.28% # attempts to use FU when none available (Count)
system.cpu.statFuBusy::SimdShaSigma3                0      0.00%     90.28% # attempts to use FU when none available (Count)
system.cpu.statFuBusy::SimdPredAlu                  0      0.00%     90.28% # attempts to use FU when none available (Count)
system.cpu.statFuBusy::MemRead                4838208      6.95%     97.23% # attempts to use FU when none available (Count)
system.cpu.statFuBusy::MemWrite               1838050      2.64%     99.87% # attempts to use FU when none available (Count)
system.cpu.statFuBusy::FloatMemRead                69      0.00%     99.87% # attempts to use FU when none available (Count)
system.cpu.statFuBusy::FloatMemWrite            88063      0.13%    100.00% # attempts to use FU when none available (Count)
system.cpu.statFuBusy::IprAccess                    0      0.00%    100.00% # attempts to use FU when none available (Count)
system.cpu.statFuBusy::InstPrefetch                 0      0.00%    100.00% # attempts to use FU when none available (Count)
system.cpu.statIssuedInstType_0::No_OpClass      6185184      0.27%      0.27% # Number of instructions issued per FU type, per thread (Count)
system.cpu.statIssuedInstType_0::IntAlu    1842725051     80.10%     80.37% # Number of instructions issued per FU type, per thread (Count)
system.cpu.statIssuedInstType_0::IntMult       225231      0.01%     80.38% # Number of instructions issued per FU type, per thread (Count)
system.cpu.statIssuedInstType_0::IntDiv       4835804      0.21%     80.59% # Number of instructions issued per FU type, per thread (Count)
system.cpu.statIssuedInstType_0::FloatAdd         1725      0.00%     80.59% # Number of instructions issued per FU type, per thread (Count)
system.cpu.statIssuedInstType_0::FloatCmp            0      0.00%     80.59% # Number of instructions issued per FU type, per thread (Count)
system.cpu.statIssuedInstType_0::FloatCvt          322      0.00%     80.59% # Number of instructions issued per FU type, per thread (Count)
system.cpu.statIssuedInstType_0::FloatMult            0      0.00%     80.59% # Number of instructions issued per FU type, per thread (Count)
system.cpu.statIssuedInstType_0::FloatMultAcc            0      0.00%     80.59% # Number of instructions issued per FU type, per thread (Count)
system.cpu.statIssuedInstType_0::FloatDiv            0      0.00%     80.59% # Number of instructions issued per FU type, per thread (Count)
system.cpu.statIssuedInstType_0::FloatMisc            0      0.00%     80.59% # Number of instructions issued per FU type, per thread (Count)
system.cpu.statIssuedInstType_0::FloatSqrt            0      0.00%     80.59% # Number of instructions issued per FU type, per thread (Count)
system.cpu.statIssuedInstType_0::SimdAdd            0      0.00%     80.59% # Number of instructions issued per FU type, per thread (Count)
system.cpu.statIssuedInstType_0::SimdAddAcc            0      0.00%     80.59% # Number of instructions issued per FU type, per thread (Count)
system.cpu.statIssuedInstType_0::SimdAlu         3250      0.00%     80.59% # Number of instructions issued per FU type, per thread (Count)
system.cpu.statIssuedInstType_0::SimdCmp            0      0.00%     80.59% # Number of instructions issued per FU type, per thread (Count)
system.cpu.statIssuedInstType_0::SimdCvt         6613      0.00%     80.59% # Number of instructions issued per FU type, per thread (Count)
system.cpu.statIssuedInstType_0::SimdMisc        17340      0.00%     80.59% # Number of instructions issued per FU type, per thread (Count)
system.cpu.statIssuedInstType_0::SimdMult            0      0.00%     80.59% # Number of instructions issued per FU type, per thread (Count)
system.cpu.statIssuedInstType_0::SimdMultAcc            0      0.00%     80.59% # Number of instructions issued per FU type, per thread (Count)
system.cpu.statIssuedInstType_0::SimdShift            0      0.00%     80.59% # Number of instructions issued per FU type, per thread (Count)
system.cpu.statIssuedInstType_0::SimdShiftAcc            0      0.00%     80.59% # Number of instructions issued per FU type, per thread (Count)
system.cpu.statIssuedInstType_0::SimdDiv            0      0.00%     80.59% # Number of instructions issued per FU type, per thread (Count)
system.cpu.statIssuedInstType_0::SimdSqrt            0      0.00%     80.59% # Number of instructions issued per FU type, per thread (Count)
system.cpu.statIssuedInstType_0::SimdFloatAdd            1      0.00%     80.59% # Number of instructions issued per FU type, per thread (Count)
system.cpu.statIssuedInstType_0::SimdFloatAlu            0      0.00%     80.59% # Number of instructions issued per FU type, per thread (Count)
system.cpu.statIssuedInstType_0::SimdFloatCmp            0      0.00%     80.59% # Number of instructions issued per FU type, per thread (Count)
system.cpu.statIssuedInstType_0::SimdFloatCvt           35      0.00%     80.59% # Number of instructions issued per FU type, per thread (Count)
system.cpu.statIssuedInstType_0::SimdFloatDiv            7      0.00%     80.59% # Number of instructions issued per FU type, per thread (Count)
system.cpu.statIssuedInstType_0::SimdFloatMisc            0      0.00%     80.59% # Number of instructions issued per FU type, per thread (Count)
system.cpu.statIssuedInstType_0::SimdFloatMult            7      0.00%     80.59% # Number of instructions issued per FU type, per thread (Count)
system.cpu.statIssuedInstType_0::SimdFloatMultAcc            0      0.00%     80.59% # Number of instructions issued per FU type, per thread (Count)
system.cpu.statIssuedInstType_0::SimdFloatSqrt            0      0.00%     80.59% # Number of instructions issued per FU type, per thread (Count)
system.cpu.statIssuedInstType_0::SimdReduceAdd            0      0.00%     80.59% # Number of instructions issued per FU type, per thread (Count)
system.cpu.statIssuedInstType_0::SimdReduceAlu            0      0.00%     80.59% # Number of instructions issued per FU type, per thread (Count)
system.cpu.statIssuedInstType_0::SimdReduceCmp            0      0.00%     80.59% # Number of instructions issued per FU type, per thread (Count)
system.cpu.statIssuedInstType_0::SimdFloatReduceAdd            0      0.00%     80.59% # Number of instructions issued per FU type, per thread (Count)
system.cpu.statIssuedInstType_0::SimdFloatReduceCmp            0      0.00%     80.59% # Number of instructions issued per FU type, per thread (Count)
system.cpu.statIssuedInstType_0::SimdAes            0      0.00%     80.59% # Number of instructions issued per FU type, per thread (Count)
system.cpu.statIssuedInstType_0::SimdAesMix            0      0.00%     80.59% # Number of instructions issued per FU type, per thread (Count)
system.cpu.statIssuedInstType_0::SimdSha1Hash            0      0.00%     80.59% # Number of instructions issued per FU type, per thread (Count)
system.cpu.statIssuedInstType_0::SimdSha1Hash2            0      0.00%     80.59% # Number of instructions issued per FU type, per thread (Count)
system.cpu.statIssuedInstType_0::SimdSha256Hash            0      0.00%     80.59% # Number of instructions issued per FU type, per thread (Count)
system.cpu.statIssuedInstType_0::SimdSha256Hash2            0      0.00%     80.59% # Number of instructions issued per FU type, per thread (Count)
system.cpu.statIssuedInstType_0::SimdShaSigma2            0      0.00%     80.59% # Number of instructions issued per FU type, per thread (Count)
system.cpu.statIssuedInstType_0::SimdShaSigma3            0      0.00%     80.59% # Number of instructions issued per FU type, per thread (Count)
system.cpu.statIssuedInstType_0::SimdPredAlu            0      0.00%     80.59% # Number of instructions issued per FU type, per thread (Count)
system.cpu.statIssuedInstType_0::MemRead    276978546     12.04%     92.63% # Number of instructions issued per FU type, per thread (Count)
system.cpu.statIssuedInstType_0::MemWrite    102101305      4.44%     97.07% # Number of instructions issued per FU type, per thread (Count)
system.cpu.statIssuedInstType_0::FloatMemRead         4291      0.00%     97.07% # Number of instructions issued per FU type, per thread (Count)
system.cpu.statIssuedInstType_0::FloatMemWrite     67420685      2.93%    100.00% # Number of instructions issued per FU type, per thread (Count)
system.cpu.statIssuedInstType_0::IprAccess            0      0.00%    100.00% # Number of instructions issued per FU type, per thread (Count)
system.cpu.statIssuedInstType_0::InstPrefetch            0      0.00%    100.00% # Number of instructions issued per FU type, per thread (Count)
system.cpu.statIssuedInstType_0::total     2300505397                       # Number of instructions issued per FU type, per thread (Count)
system.cpu.issueRate                         1.217056                       # Inst issue rate ((Count/Cycle))
system.cpu.fuBusy                            69620395                       # FU busy when requested (Count)
system.cpu.fuBusyRate                        0.030263                       # FU busy rate (busy events/executed inst) ((Count/Count))
system.cpu.intInstQueueReads               6438441306                       # Number of integer instruction queue reads (Count)
system.cpu.intInstQueueWrites              2979668012                       # Number of integer instruction queue writes (Count)
system.cpu.intInstQueueWakeupAccesses      2178967624                       # Number of integer instruction queue wakeup accesses (Count)
system.cpu.fpInstQueueReads                 135006408                       # Number of floating instruction queue reads (Count)
system.cpu.fpInstQueueWrites                 68868546                       # Number of floating instruction queue writes (Count)
system.cpu.fpInstQueueWakeupAccesses         66140495                       # Number of floating instruction queue wakeup accesses (Count)
system.cpu.vecInstQueueReads                        0                       # Number of vector instruction queue reads (Count)
system.cpu.vecInstQueueWrites                       0                       # Number of vector instruction queue writes (Count)
system.cpu.vecInstQueueWakeupAccesses               0                       # Number of vector instruction queue wakeup accesses (Count)
system.cpu.intAluAccesses                  2296393366                       # Number of integer alu accesses (Count)
system.cpu.fpAluAccesses                     67547242                       # Number of floating point alu accesses (Count)
system.cpu.vecAluAccesses                           0                       # Number of vector alu accesses (Count)
system.cpu.numInsts                        2261993064                       # Number of executed instructions (Count)
system.cpu.numLoadInsts                     269746502                       # Number of load instructions executed (Count)
system.cpu.numSquashedInsts                  38512330                       # Number of squashed instructions skipped in execute (Count)
system.cpu.numSwp                                   0                       # Number of swp insts executed (Count)
system.cpu.numNop                                   0                       # Number of nop insts executed (Count)
system.cpu.numRefs                          436652326                       # Number of memory reference insts executed (Count)
system.cpu.numBranches                      252834148                       # Number of branches executed (Count)
system.cpu.numStoreInsts                    166905824                       # Number of stores executed (Count)
system.cpu.numRate                           1.196681                       # Inst execution rate ((Count/Cycle))
system.cpu.timesIdled                           49996                       # Number of times that the entire CPU went into an idle state and unscheduled itself (Count)
system.cpu.idleCycles                         3850611                       # Total number of cycles that the CPU has spent unscheduled due to idling (Cycle)
system.cpu.committedInsts                  1000000003                       # Number of Instructions Simulated (Count)
system.cpu.committedOps                    1894218711                       # Number of Ops (including micro ops) Simulated (Count)
system.cpu.cpi                               1.890222                       # CPI: Cycles Per Instruction ((Cycle/Count))
system.cpu.totalCpi                          1.890222                       # CPI: Total CPI of All Threads ((Cycle/Count))
system.cpu.ipc                               0.529038                       # IPC: Instructions Per Cycle ((Count/Cycle))
system.cpu.totalIpc                          0.529038                       # IPC: Total IPC of All Threads ((Count/Cycle))
system.cpu.intRegfileReads                 2454328246                       # Number of integer regfile reads (Count)
system.cpu.intRegfileWrites                1613349839                       # Number of integer regfile writes (Count)
system.cpu.fpRegfileReads                    67486311                       # Number of floating regfile reads (Count)
system.cpu.fpRegfileWrites                      31165                       # Number of floating regfile writes (Count)
system.cpu.ccRegfileReads                  1235121084                       # number of cc regfile reads (Count)
system.cpu.ccRegfileWrites                  819561274                       # number of cc regfile writes (Count)
system.cpu.miscRegfileReads                1016723599                       # number of misc regfile reads (Count)
system.cpu.miscRegfileWrites                      291                       # number of misc regfile writes (Count)
system.cpu.MemDepUnit__0.insertedLoads      295808230                       # Number of loads inserted to the mem dependence unit. (Count)
system.cpu.MemDepUnit__0.insertedStores     178698230                       # Number of stores inserted to the mem dependence unit. (Count)
system.cpu.MemDepUnit__0.conflictingLoads     10427833                       # Number of conflicting loads. (Count)
system.cpu.MemDepUnit__0.conflictingStores      6999919                       # Number of conflicting stores. (Count)
system.cpu.MemDepUnit__1.insertedLoads              0                       # Number of loads inserted to the mem dependence unit. (Count)
system.cpu.MemDepUnit__1.insertedStores             0                       # Number of stores inserted to the mem dependence unit. (Count)
system.cpu.MemDepUnit__1.conflictingLoads            0                       # Number of conflicting loads. (Count)
system.cpu.MemDepUnit__1.conflictingStores            0                       # Number of conflicting stores. (Count)
system.cpu.MemDepUnit__2.insertedLoads              0                       # Number of loads inserted to the mem dependence unit. (Count)
system.cpu.MemDepUnit__2.insertedStores             0                       # Number of stores inserted to the mem dependence unit. (Count)
system.cpu.MemDepUnit__2.conflictingLoads            0                       # Number of conflicting loads. (Count)
system.cpu.MemDepUnit__2.conflictingStores            0                       # Number of conflicting stores. (Count)
system.cpu.MemDepUnit__3.insertedLoads              0                       # Number of loads inserted to the mem dependence unit. (Count)
system.cpu.MemDepUnit__3.insertedStores             0                       # Number of stores inserted to the mem dependence unit. (Count)
system.cpu.MemDepUnit__3.conflictingLoads            0                       # Number of conflicting loads. (Count)
system.cpu.MemDepUnit__3.conflictingStores            0                       # Number of conflicting stores. (Count)
system.cpu.branchPred.lookups               335916793                       # Number of BP lookups (Count)
system.cpu.branchPred.condPredicted         287768449                       # Number of conditional branches predicted (Count)
system.cpu.branchPred.condIncorrect          17311683                       # Number of conditional branches incorrect (Count)
system.cpu.branchPred.BTBLookups            164276550                       # Number of BTB lookups (Count)
system.cpu.branchPred.BTBHits               161941968                       # Number of BTB hits (Count)
system.cpu.branchPred.BTBHitRatio            0.985789                       # BTB Hit Ratio (Ratio)
system.cpu.branchPred.RASUsed                13266041                       # Number of times the RAS was used to get a target. (Count)
system.cpu.branchPred.RASIncorrect                325                       # Number of incorrect RAS predictions. (Count)
system.cpu.branchPred.indirectLookups         7083718                       # Number of indirect predictor lookups. (Count)
system.cpu.branchPred.indirectHits            6415739                       # Number of indirect target hits. (Count)
system.cpu.branchPred.indirectMisses           667979                       # Number of indirect misses. (Count)
system.cpu.branchPred.indirectMispredicted      1357449                       # Number of mispredicted indirect branches. (Count)
system.cpu.commit.commitSquashedInsts       576809884                       # The number of squashed insts skipped by commit (Count)
system.cpu.commit.commitNonSpecStalls             222                       # The number of times commit has been forced to stall to communicate backwards (Count)
system.cpu.commit.branchMispredicts          16749046                       # The number of times a branch was mispredicted (Count)
system.cpu.commit.numCommittedDist::samples   1804547718                       # Number of insts commited each cycle (Count)
system.cpu.commit.numCommittedDist::mean     1.049692                       # Number of insts commited each cycle (Count)
system.cpu.commit.numCommittedDist::stdev     2.255052                       # Number of insts commited each cycle (Count)
system.cpu.commit.numCommittedDist::underflows            0      0.00%      0.00% # Number of insts commited each cycle (Count)
system.cpu.commit.numCommittedDist::0      1300336505     72.06%     72.06% # Number of insts commited each cycle (Count)
system.cpu.commit.numCommittedDist::1       174989160      9.70%     81.76% # Number of insts commited each cycle (Count)
system.cpu.commit.numCommittedDist::2        53142979      2.94%     84.70% # Number of insts commited each cycle (Count)
system.cpu.commit.numCommittedDist::3        81509429      4.52%     89.22% # Number of insts commited each cycle (Count)
system.cpu.commit.numCommittedDist::4        22673699      1.26%     90.47% # Number of insts commited each cycle (Count)
system.cpu.commit.numCommittedDist::5        18252052      1.01%     91.49% # Number of insts commited each cycle (Count)
system.cpu.commit.numCommittedDist::6        15935237      0.88%     92.37% # Number of insts commited each cycle (Count)
system.cpu.commit.numCommittedDist::7        10820428      0.60%     92.97% # Number of insts commited each cycle (Count)
system.cpu.commit.numCommittedDist::8       126888229      7.03%    100.00% # Number of insts commited each cycle (Count)
system.cpu.commit.numCommittedDist::overflows            0      0.00%    100.00% # Number of insts commited each cycle (Count)
system.cpu.commit.numCommittedDist::min_value            0                       # Number of insts commited each cycle (Count)
system.cpu.commit.numCommittedDist::max_value            8                       # Number of insts commited each cycle (Count)
system.cpu.commit.numCommittedDist::total   1804547718                       # Number of insts commited each cycle (Count)
system.cpu.commit.instsCommitted           1000000003                       # Number of instructions committed (Count)
system.cpu.commit.opsCommitted             1894218711                       # Number of ops (including micro ops) committed (Count)
system.cpu.commit.memRefs                   383069661                       # Number of memory references committed (Count)
system.cpu.commit.loads                     227300954                       # Number of loads committed (Count)
system.cpu.commit.amos                              0                       # Number of atomic instructions committed (Count)
system.cpu.commit.membars                           0                       # Number of memory barriers committed (Count)
system.cpu.commit.branches                  223828386                       # Number of branches committed (Count)
system.cpu.commit.vectorInstructions                0                       # Number of committed Vector instructions. (Count)
system.cpu.commit.floating                   66050658                       # Number of committed floating point instructions. (Count)
system.cpu.commit.integer                  1888074289                       # Number of committed integer instructions. (Count)
system.cpu.commit.functionCalls               9093387                       # Number of function calls committed. (Count)
system.cpu.commit.committedInstType_0::No_OpClass      4190794      0.22%      0.22% # Class of committed instruction (Count)
system.cpu.commit.committedInstType_0::IntAlu   1502408862     79.32%     79.54% # Class of committed instruction (Count)
system.cpu.commit.committedInstType_0::IntMult       197340      0.01%     79.55% # Class of committed instruction (Count)
system.cpu.commit.committedInstType_0::IntDiv      4323934      0.23%     79.78% # Class of committed instruction (Count)
system.cpu.commit.committedInstType_0::FloatAdd         1670      0.00%     79.78% # Class of committed instruction (Count)
system.cpu.commit.committedInstType_0::FloatCmp            0      0.00%     79.78% # Class of committed instruction (Count)
system.cpu.commit.committedInstType_0::FloatCvt          272      0.00%     79.78% # Class of committed instruction (Count)
system.cpu.commit.committedInstType_0::FloatMult            0      0.00%     79.78% # Class of committed instruction (Count)
system.cpu.commit.committedInstType_0::FloatMultAcc            0      0.00%     79.78% # Class of committed instruction (Count)
system.cpu.commit.committedInstType_0::FloatDiv            0      0.00%     79.78% # Class of committed instruction (Count)
system.cpu.commit.committedInstType_0::FloatMisc            0      0.00%     79.78% # Class of committed instruction (Count)
system.cpu.commit.committedInstType_0::FloatSqrt            0      0.00%     79.78% # Class of committed instruction (Count)
system.cpu.commit.committedInstType_0::SimdAdd            0      0.00%     79.78% # Class of committed instruction (Count)
system.cpu.commit.committedInstType_0::SimdAddAcc            0      0.00%     79.78% # Class of committed instruction (Count)
system.cpu.commit.committedInstType_0::SimdAlu         3110      0.00%     79.78% # Class of committed instruction (Count)
system.cpu.commit.committedInstType_0::SimdCmp            0      0.00%     79.78% # Class of committed instruction (Count)
system.cpu.commit.committedInstType_0::SimdCvt         6296      0.00%     79.78% # Class of committed instruction (Count)
system.cpu.commit.committedInstType_0::SimdMisc        16728      0.00%     79.78% # Class of committed instruction (Count)
system.cpu.commit.committedInstType_0::SimdMult            0      0.00%     79.78% # Class of committed instruction (Count)
system.cpu.commit.committedInstType_0::SimdMultAcc            0      0.00%     79.78% # Class of committed instruction (Count)
system.cpu.commit.committedInstType_0::SimdShift            0      0.00%     79.78% # Class of committed instruction (Count)
system.cpu.commit.committedInstType_0::SimdShiftAcc            0      0.00%     79.78% # Class of committed instruction (Count)
system.cpu.commit.committedInstType_0::SimdDiv            0      0.00%     79.78% # Class of committed instruction (Count)
system.cpu.commit.committedInstType_0::SimdSqrt            0      0.00%     79.78% # Class of committed instruction (Count)
system.cpu.commit.committedInstType_0::SimdFloatAdd            0      0.00%     79.78% # Class of committed instruction (Count)
system.cpu.commit.committedInstType_0::SimdFloatAlu            0      0.00%     79.78% # Class of committed instruction (Count)
system.cpu.commit.committedInstType_0::SimdFloatCmp            0      0.00%     79.78% # Class of committed instruction (Count)
system.cpu.commit.committedInstType_0::SimdFloatCvt           30      0.00%     79.78% # Class of committed instruction (Count)
system.cpu.commit.committedInstType_0::SimdFloatDiv            7      0.00%     79.78% # Class of committed instruction (Count)
system.cpu.commit.committedInstType_0::SimdFloatMisc            0      0.00%     79.78% # Class of committed instruction (Count)
system.cpu.commit.committedInstType_0::SimdFloatMult            7      0.00%     79.78% # Class of committed instruction (Count)
system.cpu.commit.committedInstType_0::SimdFloatMultAcc            0      0.00%     79.78% # Class of committed instruction (Count)
system.cpu.commit.committedInstType_0::SimdFloatSqrt            0      0.00%     79.78% # Class of committed instruction (Count)
system.cpu.commit.committedInstType_0::SimdReduceAdd            0      0.00%     79.78% # Class of committed instruction (Count)
system.cpu.commit.committedInstType_0::SimdReduceAlu            0      0.00%     79.78% # Class of committed instruction (Count)
system.cpu.commit.committedInstType_0::SimdReduceCmp            0      0.00%     79.78% # Class of committed instruction (Count)
system.cpu.commit.committedInstType_0::SimdFloatReduceAdd            0      0.00%     79.78% # Class of committed instruction (Count)
system.cpu.commit.committedInstType_0::SimdFloatReduceCmp            0      0.00%     79.78% # Class of committed instruction (Count)
system.cpu.commit.committedInstType_0::SimdAes            0      0.00%     79.78% # Class of committed instruction (Count)
system.cpu.commit.committedInstType_0::SimdAesMix            0      0.00%     79.78% # Class of committed instruction (Count)
system.cpu.commit.committedInstType_0::SimdSha1Hash            0      0.00%     79.78% # Class of committed instruction (Count)
system.cpu.commit.committedInstType_0::SimdSha1Hash2            0      0.00%     79.78% # Class of committed instruction (Count)
system.cpu.commit.committedInstType_0::SimdSha256Hash            0      0.00%     79.78% # Class of committed instruction (Count)
system.cpu.commit.committedInstType_0::SimdSha256Hash2            0      0.00%     79.78% # Class of committed instruction (Count)
system.cpu.commit.committedInstType_0::SimdShaSigma2            0      0.00%     79.78% # Class of committed instruction (Count)
system.cpu.commit.committedInstType_0::SimdShaSigma3            0      0.00%     79.78% # Class of committed instruction (Count)
system.cpu.commit.committedInstType_0::SimdPredAlu            0      0.00%     79.78% # Class of committed instruction (Count)
system.cpu.commit.committedInstType_0::MemRead    227297104     12.00%     91.78% # Class of committed instruction (Count)
system.cpu.commit.committedInstType_0::MemWrite     89754658      4.74%     96.51% # Class of committed instruction (Count)
system.cpu.commit.committedInstType_0::FloatMemRead         3850      0.00%     96.51% # Class of committed instruction (Count)
system.cpu.commit.committedInstType_0::FloatMemWrite     66014049      3.49%    100.00% # Class of committed instruction (Count)
system.cpu.commit.committedInstType_0::IprAccess            0      0.00%    100.00% # Class of committed instruction (Count)
system.cpu.commit.committedInstType_0::InstPrefetch            0      0.00%    100.00% # Class of committed instruction (Count)
system.cpu.commit.committedInstType_0::total   1894218711                       # Class of committed instruction (Count)
system.cpu.commit.commitEligibleSamples     126888229                       # number cycles where commit BW limit reached (Cycle)
system.cpu.dcache.demandHits::cpu.data      399779754                       # number of demand (read+write) hits (Count)
system.cpu.dcache.demandHits::total         399779754                       # number of demand (read+write) hits (Count)
system.cpu.dcache.overallHits::cpu.data     399779754                       # number of overall hits (Count)
system.cpu.dcache.overallHits::total        399779754                       # number of overall hits (Count)
system.cpu.dcache.demandMisses::cpu.data     10234841                       # number of demand (read+write) misses (Count)
system.cpu.dcache.demandMisses::total        10234841                       # number of demand (read+write) misses (Count)
system.cpu.dcache.overallMisses::cpu.data     10234841                       # number of overall misses (Count)
system.cpu.dcache.overallMisses::total       10234841                       # number of overall misses (Count)
system.cpu.dcache.demandMissLatency::cpu.data 638787328448                       # number of demand (read+write) miss ticks (Tick)
system.cpu.dcache.demandMissLatency::total 638787328448                       # number of demand (read+write) miss ticks (Tick)
system.cpu.dcache.overallMissLatency::cpu.data 638787328448                       # number of overall miss ticks (Tick)
system.cpu.dcache.overallMissLatency::total 638787328448                       # number of overall miss ticks (Tick)
system.cpu.dcache.demandAccesses::cpu.data    410014595                       # number of demand (read+write) accesses (Count)
system.cpu.dcache.demandAccesses::total     410014595                       # number of demand (read+write) accesses (Count)
system.cpu.dcache.overallAccesses::cpu.data    410014595                       # number of overall (read+write) accesses (Count)
system.cpu.dcache.overallAccesses::total    410014595                       # number of overall (read+write) accesses (Count)
system.cpu.dcache.demandMissRate::cpu.data     0.024962                       # miss rate for demand accesses (Ratio)
system.cpu.dcache.demandMissRate::total      0.024962                       # miss rate for demand accesses (Ratio)
system.cpu.dcache.overallMissRate::cpu.data     0.024962                       # miss rate for overall accesses (Ratio)
system.cpu.dcache.overallMissRate::total     0.024962                       # miss rate for overall accesses (Ratio)
system.cpu.dcache.demandAvgMissLatency::cpu.data 62413.019259                       # average overall miss latency in ticks ((Tick/Count))
system.cpu.dcache.demandAvgMissLatency::total 62413.019259                       # average overall miss latency in ticks ((Tick/Count))
system.cpu.dcache.overallAvgMissLatency::cpu.data 62413.019259                       # average overall miss latency ((Tick/Count))
system.cpu.dcache.overallAvgMissLatency::total 62413.019259                       # average overall miss latency ((Tick/Count))
system.cpu.dcache.blockedCycles::no_mshrs       609494                       # number of cycles access was blocked (Cycle)
system.cpu.dcache.blockedCycles::no_targets        14955                       # number of cycles access was blocked (Cycle)
system.cpu.dcache.blockedCauses::no_mshrs         8222                       # number of times access was blocked (Count)
system.cpu.dcache.blockedCauses::no_targets          151                       # number of times access was blocked (Count)
system.cpu.dcache.avgBlocked::no_mshrs      74.129652                       # average number of cycles each access was blocked ((Cycle/Count))
system.cpu.dcache.avgBlocked::no_targets    99.039735                       # average number of cycles each access was blocked ((Cycle/Count))
system.cpu.dcache.writebacks::writebacks      8981409                       # number of writebacks (Count)
system.cpu.dcache.writebacks::total           8981409                       # number of writebacks (Count)
system.cpu.dcache.demandMshrHits::cpu.data       682222                       # number of demand (read+write) MSHR hits (Count)
system.cpu.dcache.demandMshrHits::total        682222                       # number of demand (read+write) MSHR hits (Count)
system.cpu.dcache.overallMshrHits::cpu.data       682222                       # number of overall MSHR hits (Count)
system.cpu.dcache.overallMshrHits::total       682222                       # number of overall MSHR hits (Count)
system.cpu.dcache.demandMshrMisses::cpu.data      9552619                       # number of demand (read+write) MSHR misses (Count)
system.cpu.dcache.demandMshrMisses::total      9552619                       # number of demand (read+write) MSHR misses (Count)
system.cpu.dcache.overallMshrMisses::cpu.data      9552619                       # number of overall MSHR misses (Count)
system.cpu.dcache.overallMshrMisses::total      9552619                       # number of overall MSHR misses (Count)
system.cpu.dcache.demandMshrMissLatency::cpu.data 583589710457                       # number of demand (read+write) MSHR miss ticks (Tick)
system.cpu.dcache.demandMshrMissLatency::total 583589710457                       # number of demand (read+write) MSHR miss ticks (Tick)
system.cpu.dcache.overallMshrMissLatency::cpu.data 583589710457                       # number of overall MSHR miss ticks (Tick)
system.cpu.dcache.overallMshrMissLatency::total 583589710457                       # number of overall MSHR miss ticks (Tick)
system.cpu.dcache.demandMshrMissRate::cpu.data     0.023298                       # mshr miss ratio for demand accesses (Ratio)
system.cpu.dcache.demandMshrMissRate::total     0.023298                       # mshr miss ratio for demand accesses (Ratio)
system.cpu.dcache.overallMshrMissRate::cpu.data     0.023298                       # mshr miss ratio for overall accesses (Ratio)
system.cpu.dcache.overallMshrMissRate::total     0.023298                       # mshr miss ratio for overall accesses (Ratio)
system.cpu.dcache.demandAvgMshrMissLatency::cpu.data 61092.116252                       # average overall mshr miss latency ((Tick/Count))
system.cpu.dcache.demandAvgMshrMissLatency::total 61092.116252                       # average overall mshr miss latency ((Tick/Count))
system.cpu.dcache.overallAvgMshrMissLatency::cpu.data 61092.116252                       # average overall mshr miss latency ((Tick/Count))
system.cpu.dcache.overallAvgMshrMissLatency::total 61092.116252                       # average overall mshr miss latency ((Tick/Count))
system.cpu.dcache.replacements                9552106                       # number of replacements (Count)
system.cpu.dcache.ReadReq.hits::cpu.data    252690850                       # number of ReadReq hits (Count)
system.cpu.dcache.ReadReq.hits::total       252690850                       # number of ReadReq hits (Count)
system.cpu.dcache.ReadReq.misses::cpu.data      1555028                       # number of ReadReq misses (Count)
system.cpu.dcache.ReadReq.misses::total       1555028                       # number of ReadReq misses (Count)
system.cpu.dcache.ReadReq.missLatency::cpu.data 108594136000                       # number of ReadReq miss ticks (Tick)
system.cpu.dcache.ReadReq.missLatency::total 108594136000                       # number of ReadReq miss ticks (Tick)
system.cpu.dcache.ReadReq.accesses::cpu.data    254245878                       # number of ReadReq accesses(hits+misses) (Count)
system.cpu.dcache.ReadReq.accesses::total    254245878                       # number of ReadReq accesses(hits+misses) (Count)
system.cpu.dcache.ReadReq.missRate::cpu.data     0.006116                       # miss rate for ReadReq accesses (Ratio)
system.cpu.dcache.ReadReq.missRate::total     0.006116                       # miss rate for ReadReq accesses (Ratio)
system.cpu.dcache.ReadReq.avgMissLatency::cpu.data 69834.199770                       # average ReadReq miss latency ((Tick/Count))
system.cpu.dcache.ReadReq.avgMissLatency::total 69834.199770                       # average ReadReq miss latency ((Tick/Count))
system.cpu.dcache.ReadReq.mshrHits::cpu.data       681050                       # number of ReadReq MSHR hits (Count)
system.cpu.dcache.ReadReq.mshrHits::total       681050                       # number of ReadReq MSHR hits (Count)
system.cpu.dcache.ReadReq.mshrMisses::cpu.data       873978                       # number of ReadReq MSHR misses (Count)
system.cpu.dcache.ReadReq.mshrMisses::total       873978                       # number of ReadReq MSHR misses (Count)
system.cpu.dcache.ReadReq.mshrMissLatency::cpu.data  62128687000                       # number of ReadReq MSHR miss ticks (Tick)
system.cpu.dcache.ReadReq.mshrMissLatency::total  62128687000                       # number of ReadReq MSHR miss ticks (Tick)
system.cpu.dcache.ReadReq.mshrMissRate::cpu.data     0.003438                       # mshr miss rate for ReadReq accesses (Ratio)
system.cpu.dcache.ReadReq.mshrMissRate::total     0.003438                       # mshr miss rate for ReadReq accesses (Ratio)
system.cpu.dcache.ReadReq.avgMshrMissLatency::cpu.data 71087.243615                       # average ReadReq mshr miss latency ((Tick/Count))
system.cpu.dcache.ReadReq.avgMshrMissLatency::total 71087.243615                       # average ReadReq mshr miss latency ((Tick/Count))
system.cpu.dcache.WriteReq.hits::cpu.data    147088904                       # number of WriteReq hits (Count)
system.cpu.dcache.WriteReq.hits::total      147088904                       # number of WriteReq hits (Count)
system.cpu.dcache.WriteReq.misses::cpu.data      8679813                       # number of WriteReq misses (Count)
system.cpu.dcache.WriteReq.misses::total      8679813                       # number of WriteReq misses (Count)
system.cpu.dcache.WriteReq.missLatency::cpu.data 530193192448                       # number of WriteReq miss ticks (Tick)
system.cpu.dcache.WriteReq.missLatency::total 530193192448                       # number of WriteReq miss ticks (Tick)
system.cpu.dcache.WriteReq.accesses::cpu.data    155768717                       # number of WriteReq accesses(hits+misses) (Count)
system.cpu.dcache.WriteReq.accesses::total    155768717                       # number of WriteReq accesses(hits+misses) (Count)
system.cpu.dcache.WriteReq.missRate::cpu.data     0.055722                       # miss rate for WriteReq accesses (Ratio)
system.cpu.dcache.WriteReq.missRate::total     0.055722                       # miss rate for WriteReq accesses (Ratio)
system.cpu.dcache.WriteReq.avgMissLatency::cpu.data 61083.480998                       # average WriteReq miss latency ((Tick/Count))
system.cpu.dcache.WriteReq.avgMissLatency::total 61083.480998                       # average WriteReq miss latency ((Tick/Count))
system.cpu.dcache.WriteReq.mshrHits::cpu.data         1172                       # number of WriteReq MSHR hits (Count)
system.cpu.dcache.WriteReq.mshrHits::total         1172                       # number of WriteReq MSHR hits (Count)
system.cpu.dcache.WriteReq.mshrMisses::cpu.data      8678641                       # number of WriteReq MSHR misses (Count)
system.cpu.dcache.WriteReq.mshrMisses::total      8678641                       # number of WriteReq MSHR misses (Count)
system.cpu.dcache.WriteReq.mshrMissLatency::cpu.data 521461023457                       # number of WriteReq MSHR miss ticks (Tick)
system.cpu.dcache.WriteReq.mshrMissLatency::total 521461023457                       # number of WriteReq MSHR miss ticks (Tick)
system.cpu.dcache.WriteReq.mshrMissRate::cpu.data     0.055715                       # mshr miss rate for WriteReq accesses (Ratio)
system.cpu.dcache.WriteReq.mshrMissRate::total     0.055715                       # mshr miss rate for WriteReq accesses (Ratio)
system.cpu.dcache.WriteReq.avgMshrMissLatency::cpu.data 60085.562182                       # average WriteReq mshr miss latency ((Tick/Count))
system.cpu.dcache.WriteReq.avgMshrMissLatency::total 60085.562182                       # average WriteReq mshr miss latency ((Tick/Count))
system.cpu.dcache.power_state.pwrStateResidencyTicks::UNDEFINED 945110996000                       # Cumulative time (in ticks) in various power states (Tick)
system.cpu.dcache.tags.tagsInUse           511.986501                       # Average ticks per tags in use ((Tick/Count))
system.cpu.dcache.tags.totalRefs            409332373                       # Total number of references to valid blocks. (Count)
system.cpu.dcache.tags.sampledRefs            9552618                       # Sample count of references to valid blocks. (Count)
system.cpu.dcache.tags.avgRefs              42.850282                       # Average number of references to valid blocks. ((Count/Count))
system.cpu.dcache.tags.warmupTick              148000                       # The tick when the warmup percentage was hit. (Tick)
system.cpu.dcache.tags.occupancies::cpu.data   511.986501                       # Average occupied blocks per tick, per requestor ((Count/Tick))
system.cpu.dcache.tags.avgOccs::cpu.data     0.999974                       # Average percentage of cache occupancy ((Ratio/Tick))
system.cpu.dcache.tags.avgOccs::total        0.999974                       # Average percentage of cache occupancy ((Ratio/Tick))
system.cpu.dcache.tags.occupanciesTaskId::1024          512                       # Occupied blocks per task id (Count)
system.cpu.dcache.tags.ageTaskId_1024::0           23                       # Occupied blocks per task id, per block age (Count)
system.cpu.dcache.tags.ageTaskId_1024::1          175                       # Occupied blocks per task id, per block age (Count)
system.cpu.dcache.tags.ageTaskId_1024::2          219                       # Occupied blocks per task id, per block age (Count)
system.cpu.dcache.tags.ageTaskId_1024::3           48                       # Occupied blocks per task id, per block age (Count)
system.cpu.dcache.tags.ageTaskId_1024::4           47                       # Occupied blocks per task id, per block age (Count)
system.cpu.dcache.tags.ratioOccsTaskId::1024            1                       # Ratio of occupied blocks and all blocks, per task id (Ratio)
system.cpu.dcache.tags.tagAccesses         3289669378                       # Number of tag accesses (Count)
system.cpu.dcache.tags.dataAccesses        3289669378                       # Number of data accesses (Count)
system.cpu.dcache.tags.power_state.pwrStateResidencyTicks::UNDEFINED 945110996000                       # Cumulative time (in ticks) in various power states (Tick)
system.cpu.decode.idleCycles                185093794                       # Number of cycles decode is idle (Cycle)
system.cpu.decode.blockedCycles            1267538968                       # Number of cycles decode is blocked (Cycle)
system.cpu.decode.runCycles                 383525512                       # Number of cycles decode is running (Cycle)
system.cpu.decode.unblockCycles              33326311                       # Number of cycles decode is unblocking (Cycle)
system.cpu.decode.squashCycles               16886797                       # Number of cycles decode is squashing (Cycle)
system.cpu.decode.branchResolved            155724283                       # Number of times decode resolved a branch (Count)
system.cpu.decode.branchMispred                583505                       # Number of times decode detected a branch misprediction (Count)
system.cpu.decode.decodedInsts             2683230002                       # Number of instructions handled by decode (Count)
system.cpu.decode.squashedInsts               1963770                       # Number of squashed instructions handled by decode (Count)
system.cpu.dtb_walker_cache.blockedCycles::no_mshrs            0                       # number of cycles access was blocked (Cycle)
system.cpu.dtb_walker_cache.blockedCycles::no_targets            0                       # number of cycles access was blocked (Cycle)
system.cpu.dtb_walker_cache.blockedCauses::no_mshrs            0                       # number of times access was blocked (Count)
system.cpu.dtb_walker_cache.blockedCauses::no_targets            0                       # number of times access was blocked (Count)
system.cpu.dtb_walker_cache.avgBlocked::no_mshrs          nan                       # average number of cycles each access was blocked ((Cycle/Count))
system.cpu.dtb_walker_cache.avgBlocked::no_targets          nan                       # average number of cycles each access was blocked ((Cycle/Count))
system.cpu.dtb_walker_cache.replacements            0                       # number of replacements (Count)
system.cpu.dtb_walker_cache.power_state.pwrStateResidencyTicks::UNDEFINED 945110996000                       # Cumulative time (in ticks) in various power states (Tick)
system.cpu.dtb_walker_cache.tags.tagsInUse            0                       # Average ticks per tags in use ((Tick/Count))
system.cpu.dtb_walker_cache.tags.totalRefs            0                       # Total number of references to valid blocks. (Count)
system.cpu.dtb_walker_cache.tags.sampledRefs            0                       # Sample count of references to valid blocks. (Count)
system.cpu.dtb_walker_cache.tags.avgRefs          nan                       # Average number of references to valid blocks. ((Count/Count))
system.cpu.dtb_walker_cache.tags.warmupTick            0                       # The tick when the warmup percentage was hit. (Tick)
system.cpu.dtb_walker_cache.tags.tagAccesses            0                       # Number of tag accesses (Count)
system.cpu.dtb_walker_cache.tags.dataAccesses            0                       # Number of data accesses (Count)
system.cpu.dtb_walker_cache.tags.power_state.pwrStateResidencyTicks::UNDEFINED 945110996000                       # Cumulative time (in ticks) in various power states (Tick)
system.cpu.fetch.icacheStallCycles          218240386                       # Number of cycles fetch is stalled on an Icache miss (Cycle)
system.cpu.fetch.insts                     1470830308                       # Number of instructions fetch has processed (Count)
system.cpu.fetch.branches                   335916793                       # Number of branches that fetch encountered (Count)
system.cpu.fetch.predictedBranches          181623748                       # Number of branches that fetch has predicted taken (Count)
system.cpu.fetch.cycles                    1650677270                       # Number of cycles fetch has run and was not squashing or blocked (Cycle)
system.cpu.fetch.squashCycles                34899604                       # Number of cycles fetch has spent squashing (Cycle)
system.cpu.fetch.miscStallCycles                  441                       # Number of cycles fetch has spent waiting on interrupts, or bad addresses, or out of MSHRs (Cycle)
system.cpu.fetch.pendingTrapStallCycles          3258                       # Number of stall cycles due to pending traps (Cycle)
system.cpu.fetch.icacheWaitRetryStallCycles          225                       # Number of stall cycles due to full MSHR (Cycle)
system.cpu.fetch.cacheLines                 207078156                       # Number of cache lines fetched (Count)
system.cpu.fetch.icacheSquashes               4610396                       # Number of outstanding Icache misses that were squashed (Count)
system.cpu.fetch.nisnDist::samples         1886371382                       # Number of instructions fetched each cycle (Total) (Count)
system.cpu.fetch.nisnDist::mean              1.479078                       # Number of instructions fetched each cycle (Total) (Count)
system.cpu.fetch.nisnDist::stdev             2.828635                       # Number of instructions fetched each cycle (Total) (Count)
system.cpu.fetch.nisnDist::underflows               0      0.00%      0.00% # Number of instructions fetched each cycle (Total) (Count)
system.cpu.fetch.nisnDist::0               1418123904     75.18%     75.18% # Number of instructions fetched each cycle (Total) (Count)
system.cpu.fetch.nisnDist::1                 22489977      1.19%     76.37% # Number of instructions fetched each cycle (Total) (Count)
system.cpu.fetch.nisnDist::2                 43171941      2.29%     78.66% # Number of instructions fetched each cycle (Total) (Count)
system.cpu.fetch.nisnDist::3                 25462701      1.35%     80.01% # Number of instructions fetched each cycle (Total) (Count)
system.cpu.fetch.nisnDist::4                 38194439      2.02%     82.03% # Number of instructions fetched each cycle (Total) (Count)
system.cpu.fetch.nisnDist::5                 48318350      2.56%     84.59% # Number of instructions fetched each cycle (Total) (Count)
system.cpu.fetch.nisnDist::6                 46608887      2.47%     87.07% # Number of instructions fetched each cycle (Total) (Count)
system.cpu.fetch.nisnDist::7                 21163503      1.12%     88.19% # Number of instructions fetched each cycle (Total) (Count)
system.cpu.fetch.nisnDist::8                222837680     11.81%    100.00% # Number of instructions fetched each cycle (Total) (Count)
system.cpu.fetch.nisnDist::overflows                0      0.00%    100.00% # Number of instructions fetched each cycle (Total) (Count)
system.cpu.fetch.nisnDist::min_value                0                       # Number of instructions fetched each cycle (Total) (Count)
system.cpu.fetch.nisnDist::max_value                8                       # Number of instructions fetched each cycle (Total) (Count)
system.cpu.fetch.nisnDist::total           1886371382                       # Number of instructions fetched each cycle (Total) (Count)
system.cpu.fetch.branchRate                  0.177713                       # Number of branch fetches per cycle (Ratio)
system.cpu.fetch.rate                        0.778126                       # Number of inst fetches per cycle ((Count/Cycle))
system.cpu.icache.demandHits::cpu.inst      206971268                       # number of demand (read+write) hits (Count)
system.cpu.icache.demandHits::total         206971268                       # number of demand (read+write) hits (Count)
system.cpu.icache.overallHits::cpu.inst     206971268                       # number of overall hits (Count)
system.cpu.icache.overallHits::total        206971268                       # number of overall hits (Count)
system.cpu.icache.demandMisses::cpu.inst       106887                       # number of demand (read+write) misses (Count)
system.cpu.icache.demandMisses::total          106887                       # number of demand (read+write) misses (Count)
system.cpu.icache.overallMisses::cpu.inst       106887                       # number of overall misses (Count)
system.cpu.icache.overallMisses::total         106887                       # number of overall misses (Count)
system.cpu.icache.demandMissLatency::cpu.inst   6037318998                       # number of demand (read+write) miss ticks (Tick)
system.cpu.icache.demandMissLatency::total   6037318998                       # number of demand (read+write) miss ticks (Tick)
system.cpu.icache.overallMissLatency::cpu.inst   6037318998                       # number of overall miss ticks (Tick)
system.cpu.icache.overallMissLatency::total   6037318998                       # number of overall miss ticks (Tick)
system.cpu.icache.demandAccesses::cpu.inst    207078155                       # number of demand (read+write) accesses (Count)
system.cpu.icache.demandAccesses::total     207078155                       # number of demand (read+write) accesses (Count)
system.cpu.icache.overallAccesses::cpu.inst    207078155                       # number of overall (read+write) accesses (Count)
system.cpu.icache.overallAccesses::total    207078155                       # number of overall (read+write) accesses (Count)
system.cpu.icache.demandMissRate::cpu.inst     0.000516                       # miss rate for demand accesses (Ratio)
system.cpu.icache.demandMissRate::total      0.000516                       # miss rate for demand accesses (Ratio)
system.cpu.icache.overallMissRate::cpu.inst     0.000516                       # miss rate for overall accesses (Ratio)
system.cpu.icache.overallMissRate::total     0.000516                       # miss rate for overall accesses (Ratio)
system.cpu.icache.demandAvgMissLatency::cpu.inst 56483.192512                       # average overall miss latency in ticks ((Tick/Count))
system.cpu.icache.demandAvgMissLatency::total 56483.192512                       # average overall miss latency in ticks ((Tick/Count))
system.cpu.icache.overallAvgMissLatency::cpu.inst 56483.192512                       # average overall miss latency ((Tick/Count))
system.cpu.icache.overallAvgMissLatency::total 56483.192512                       # average overall miss latency ((Tick/Count))
system.cpu.icache.blockedCycles::no_mshrs         3768                       # number of cycles access was blocked (Cycle)
system.cpu.icache.blockedCycles::no_targets            0                       # number of cycles access was blocked (Cycle)
system.cpu.icache.blockedCauses::no_mshrs           65                       # number of times access was blocked (Count)
system.cpu.icache.blockedCauses::no_targets            0                       # number of times access was blocked (Count)
system.cpu.icache.avgBlocked::no_mshrs      57.969231                       # average number of cycles each access was blocked ((Cycle/Count))
system.cpu.icache.avgBlocked::no_targets          nan                       # average number of cycles each access was blocked ((Cycle/Count))
system.cpu.icache.writebacks::writebacks        92527                       # number of writebacks (Count)
system.cpu.icache.writebacks::total             92527                       # number of writebacks (Count)
system.cpu.icache.demandMshrHits::cpu.inst        13847                       # number of demand (read+write) MSHR hits (Count)
system.cpu.icache.demandMshrHits::total         13847                       # number of demand (read+write) MSHR hits (Count)
system.cpu.icache.overallMshrHits::cpu.inst        13847                       # number of overall MSHR hits (Count)
system.cpu.icache.overallMshrHits::total        13847                       # number of overall MSHR hits (Count)
system.cpu.icache.demandMshrMisses::cpu.inst        93040                       # number of demand (read+write) MSHR misses (Count)
system.cpu.icache.demandMshrMisses::total        93040                       # number of demand (read+write) MSHR misses (Count)
system.cpu.icache.overallMshrMisses::cpu.inst        93040                       # number of overall MSHR misses (Count)
system.cpu.icache.overallMshrMisses::total        93040                       # number of overall MSHR misses (Count)
system.cpu.icache.demandMshrMissLatency::cpu.inst   5377572500                       # number of demand (read+write) MSHR miss ticks (Tick)
system.cpu.icache.demandMshrMissLatency::total   5377572500                       # number of demand (read+write) MSHR miss ticks (Tick)
system.cpu.icache.overallMshrMissLatency::cpu.inst   5377572500                       # number of overall MSHR miss ticks (Tick)
system.cpu.icache.overallMshrMissLatency::total   5377572500                       # number of overall MSHR miss ticks (Tick)
system.cpu.icache.demandMshrMissRate::cpu.inst     0.000449                       # mshr miss ratio for demand accesses (Ratio)
system.cpu.icache.demandMshrMissRate::total     0.000449                       # mshr miss ratio for demand accesses (Ratio)
system.cpu.icache.overallMshrMissRate::cpu.inst     0.000449                       # mshr miss ratio for overall accesses (Ratio)
system.cpu.icache.overallMshrMissRate::total     0.000449                       # mshr miss ratio for overall accesses (Ratio)
system.cpu.icache.demandAvgMshrMissLatency::cpu.inst 57798.500645                       # average overall mshr miss latency ((Tick/Count))
system.cpu.icache.demandAvgMshrMissLatency::total 57798.500645                       # average overall mshr miss latency ((Tick/Count))
system.cpu.icache.overallAvgMshrMissLatency::cpu.inst 57798.500645                       # average overall mshr miss latency ((Tick/Count))
system.cpu.icache.overallAvgMshrMissLatency::total 57798.500645                       # average overall mshr miss latency ((Tick/Count))
system.cpu.icache.replacements                  92527                       # number of replacements (Count)
system.cpu.icache.ReadReq.hits::cpu.inst    206971268                       # number of ReadReq hits (Count)
system.cpu.icache.ReadReq.hits::total       206971268                       # number of ReadReq hits (Count)
system.cpu.icache.ReadReq.misses::cpu.inst       106887                       # number of ReadReq misses (Count)
system.cpu.icache.ReadReq.misses::total        106887                       # number of ReadReq misses (Count)
system.cpu.icache.ReadReq.missLatency::cpu.inst   6037318998                       # number of ReadReq miss ticks (Tick)
system.cpu.icache.ReadReq.missLatency::total   6037318998                       # number of ReadReq miss ticks (Tick)
system.cpu.icache.ReadReq.accesses::cpu.inst    207078155                       # number of ReadReq accesses(hits+misses) (Count)
system.cpu.icache.ReadReq.accesses::total    207078155                       # number of ReadReq accesses(hits+misses) (Count)
system.cpu.icache.ReadReq.missRate::cpu.inst     0.000516                       # miss rate for ReadReq accesses (Ratio)
system.cpu.icache.ReadReq.missRate::total     0.000516                       # miss rate for ReadReq accesses (Ratio)
system.cpu.icache.ReadReq.avgMissLatency::cpu.inst 56483.192512                       # average ReadReq miss latency ((Tick/Count))
system.cpu.icache.ReadReq.avgMissLatency::total 56483.192512                       # average ReadReq miss latency ((Tick/Count))
system.cpu.icache.ReadReq.mshrHits::cpu.inst        13847                       # number of ReadReq MSHR hits (Count)
system.cpu.icache.ReadReq.mshrHits::total        13847                       # number of ReadReq MSHR hits (Count)
system.cpu.icache.ReadReq.mshrMisses::cpu.inst        93040                       # number of ReadReq MSHR misses (Count)
system.cpu.icache.ReadReq.mshrMisses::total        93040                       # number of ReadReq MSHR misses (Count)
system.cpu.icache.ReadReq.mshrMissLatency::cpu.inst   5377572500                       # number of ReadReq MSHR miss ticks (Tick)
system.cpu.icache.ReadReq.mshrMissLatency::total   5377572500                       # number of ReadReq MSHR miss ticks (Tick)
system.cpu.icache.ReadReq.mshrMissRate::cpu.inst     0.000449                       # mshr miss rate for ReadReq accesses (Ratio)
system.cpu.icache.ReadReq.mshrMissRate::total     0.000449                       # mshr miss rate for ReadReq accesses (Ratio)
system.cpu.icache.ReadReq.avgMshrMissLatency::cpu.inst 57798.500645                       # average ReadReq mshr miss latency ((Tick/Count))
system.cpu.icache.ReadReq.avgMshrMissLatency::total 57798.500645                       # average ReadReq mshr miss latency ((Tick/Count))
system.cpu.icache.power_state.pwrStateResidencyTicks::UNDEFINED 945110996000                       # Cumulative time (in ticks) in various power states (Tick)
system.cpu.icache.tags.tagsInUse           511.785009                       # Average ticks per tags in use ((Tick/Count))
system.cpu.icache.tags.totalRefs            207064308                       # Total number of references to valid blocks. (Count)
system.cpu.icache.tags.sampledRefs              93040                       # Sample count of references to valid blocks. (Count)
system.cpu.icache.tags.avgRefs            2225.540714                       # Average number of references to valid blocks. ((Count/Count))
system.cpu.icache.tags.warmupTick               77000                       # The tick when the warmup percentage was hit. (Tick)
system.cpu.icache.tags.occupancies::cpu.inst   511.785009                       # Average occupied blocks per tick, per requestor ((Count/Tick))
system.cpu.icache.tags.avgOccs::cpu.inst     0.999580                       # Average percentage of cache occupancy ((Ratio/Tick))
system.cpu.icache.tags.avgOccs::total        0.999580                       # Average percentage of cache occupancy ((Ratio/Tick))
system.cpu.icache.tags.occupanciesTaskId::1024          512                       # Occupied blocks per task id (Count)
system.cpu.icache.tags.ageTaskId_1024::1            7                       # Occupied blocks per task id, per block age (Count)
system.cpu.icache.tags.ageTaskId_1024::2           21                       # Occupied blocks per task id, per block age (Count)
system.cpu.icache.tags.ageTaskId_1024::3           57                       # Occupied blocks per task id, per block age (Count)
system.cpu.icache.tags.ageTaskId_1024::4          427                       # Occupied blocks per task id, per block age (Count)
system.cpu.icache.tags.ratioOccsTaskId::1024            1                       # Ratio of occupied blocks and all blocks, per task id (Ratio)
system.cpu.icache.tags.tagAccesses         1656718280                       # Number of tag accesses (Count)
system.cpu.icache.tags.dataAccesses        1656718280                       # Number of data accesses (Count)
system.cpu.icache.tags.power_state.pwrStateResidencyTicks::UNDEFINED 945110996000                       # Cumulative time (in ticks) in various power states (Tick)
system.cpu.iew.idleCycles                           0                       # Number of cycles IEW is idle (Cycle)
system.cpu.iew.squashCycles                  16886797                       # Number of cycles IEW is squashing (Cycle)
system.cpu.iew.blockCycles                   76141289                       # Number of cycles IEW is blocking (Cycle)
system.cpu.iew.unblockCycles                484611234                       # Number of cycles IEW is unblocking (Cycle)
system.cpu.iew.dispatchedInsts             2471322737                       # Number of instructions dispatched to IQ (Count)
system.cpu.iew.dispSquashedInsts              1313893                       # Number of squashed instructions skipped by dispatch (Count)
system.cpu.iew.dispLoadInsts                295808230                       # Number of dispatched load instructions (Count)
system.cpu.iew.dispStoreInsts               178698230                       # Number of dispatched store instructions (Count)
system.cpu.iew.dispNonSpecInsts                   302                       # Number of dispatched non-speculative instructions (Count)
system.cpu.iew.iqFullEvents                    155534                       # Number of times the IQ has become full, causing a stall (Count)
system.cpu.iew.lsqFullEvents                484406933                       # Number of times the LSQ has become full, causing a stall (Count)
system.cpu.iew.memOrderViolationEvents         119622                       # Number of memory order violations (Count)
system.cpu.iew.predictedTakenIncorrect       10150358                       # Number of branches that were predicted taken incorrectly (Count)
system.cpu.iew.predictedNotTakenIncorrect      9297102                       # Number of branches that were predicted not taken incorrectly (Count)
system.cpu.iew.branchMispredicts             19447460                       # Number of branch mispredicts detected at execute (Count)
system.cpu.iew.instsToCommit               2253111628                       # Cumulative count of insts sent to commit (Count)
system.cpu.iew.writebackCount              2245108119                       # Cumulative count of insts written-back (Count)
system.cpu.iew.producerInst                1691933661                       # Number of instructions producing a value (Count)
system.cpu.iew.consumerInst                2464312762                       # Number of instructions consuming a value (Count)
system.cpu.iew.wbRate                        1.187748                       # Insts written-back per cycle ((Count/Cycle))
system.cpu.iew.wbFanout                      0.686574                       # Average fanout of values written-back ((Count/Count))
system.cpu.interrupts.clk_domain.clock           8000                       # Clock period in ticks (Tick)
system.cpu.itb_walker_cache.blockedCycles::no_mshrs            0                       # number of cycles access was blocked (Cycle)
system.cpu.itb_walker_cache.blockedCycles::no_targets            0                       # number of cycles access was blocked (Cycle)
system.cpu.itb_walker_cache.blockedCauses::no_mshrs            0                       # number of times access was blocked (Count)
system.cpu.itb_walker_cache.blockedCauses::no_targets            0                       # number of times access was blocked (Count)
system.cpu.itb_walker_cache.avgBlocked::no_mshrs          nan                       # average number of cycles each access was blocked ((Cycle/Count))
system.cpu.itb_walker_cache.avgBlocked::no_targets          nan                       # average number of cycles each access was blocked ((Cycle/Count))
system.cpu.itb_walker_cache.replacements            0                       # number of replacements (Count)
system.cpu.itb_walker_cache.power_state.pwrStateResidencyTicks::UNDEFINED 945110996000                       # Cumulative time (in ticks) in various power states (Tick)
system.cpu.itb_walker_cache.tags.tagsInUse            0                       # Average ticks per tags in use ((Tick/Count))
system.cpu.itb_walker_cache.tags.totalRefs            0                       # Total number of references to valid blocks. (Count)
system.cpu.itb_walker_cache.tags.sampledRefs            0                       # Sample count of references to valid blocks. (Count)
system.cpu.itb_walker_cache.tags.avgRefs          nan                       # Average number of references to valid blocks. ((Count/Count))
system.cpu.itb_walker_cache.tags.warmupTick            0                       # The tick when the warmup percentage was hit. (Tick)
system.cpu.itb_walker_cache.tags.tagAccesses            0                       # Number of tag accesses (Count)
system.cpu.itb_walker_cache.tags.dataAccesses            0                       # Number of data accesses (Count)
system.cpu.itb_walker_cache.tags.power_state.pwrStateResidencyTicks::UNDEFINED 945110996000                       # Cumulative time (in ticks) in various power states (Tick)
system.cpu.lsq0.forwLoads                    15429664                       # Number of loads that had data forwarded from stores (Count)
system.cpu.lsq0.squashedLoads                68507273                       # Number of loads squashed (Count)
system.cpu.lsq0.ignoredResponses                97362                       # Number of memory responses ignored because the instruction is squashed (Count)
system.cpu.lsq0.memOrderViolation              119622                       # Number of memory ordering violations (Count)
system.cpu.lsq0.squashedStores               22929522                       # Number of stores squashed (Count)
system.cpu.lsq0.rescheduledLoads                 4362                       # Number of loads that were rescheduled (Count)
system.cpu.lsq0.blockedByCache                   7064                       # Number of times an access to memory failed due to the cache being blocked (Count)
system.cpu.lsq0.loadToUse::samples          227300954                       # Distribution of cycle latency between the first time a load is issued and its completion (Unspecified)
system.cpu.lsq0.loadToUse::mean              3.902390                       # Distribution of cycle latency between the first time a load is issued and its completion (Unspecified)
system.cpu.lsq0.loadToUse::stdev            11.218481                       # Distribution of cycle latency between the first time a load is issued and its completion (Unspecified)
system.cpu.lsq0.loadToUse::0-9              226101971     99.47%     99.47% # Distribution of cycle latency between the first time a load is issued and its completion (Unspecified)
system.cpu.lsq0.loadToUse::10-19                 8854      0.00%     99.48% # Distribution of cycle latency between the first time a load is issued and its completion (Unspecified)
system.cpu.lsq0.loadToUse::20-29                 7205      0.00%     99.48% # Distribution of cycle latency between the first time a load is issued and its completion (Unspecified)
system.cpu.lsq0.loadToUse::30-39                 9517      0.00%     99.48% # Distribution of cycle latency between the first time a load is issued and its completion (Unspecified)
system.cpu.lsq0.loadToUse::40-49                24481      0.01%     99.49% # Distribution of cycle latency between the first time a load is issued and its completion (Unspecified)
system.cpu.lsq0.loadToUse::50-59                32929      0.01%     99.51% # Distribution of cycle latency between the first time a load is issued and its completion (Unspecified)
[...]
system.mem_ctrls.dram.bwTotal::writebacks    608193301                       # Total bandwidth to/from this memory ((Byte/Second))
system.mem_ctrls.dram.bwTotal::cpu.inst       6300314                       # Total bandwidth to/from this memory ((Byte/Second))
system.mem_ctrls.dram.bwTotal::cpu.data     646873811                       # Total bandwidth to/from this memory ((Byte/Second))
system.mem_ctrls.dram.bwTotal::total       1261367426                       # Total bandwidth to/from this memory ((Byte/Second))
system.mem_ctrls.dram.readBursts              9525032                       # Number of DRAM read bursts (Count)
system.mem_ctrls.dram.writeBursts             9066922                       # Number of DRAM write bursts (Count)
system.mem_ctrls.dram.perBankRdBursts::0       589544                       # Per bank write bursts (Count)
system.mem_ctrls.dram.perBankRdBursts::1       583897                       # Per bank write bursts (Count)
system.mem_ctrls.dram.perBankRdBursts::2       578845                       # Per bank write bursts (Count)
system.mem_ctrls.dram.perBankRdBursts::3       607289                       # Per bank write bursts (Count)
system.mem_ctrls.dram.perBankRdBursts::4       584294                       # Per bank write bursts (Count)
system.mem_ctrls.dram.perBankRdBursts::5       611345                       # Per bank write bursts (Count)
system.mem_ctrls.dram.perBankRdBursts::6       565328                       # Per bank write bursts (Count)
system.mem_ctrls.dram.perBankRdBursts::7       561830                       # Per bank write bursts (Count)
system.mem_ctrls.dram.perBankRdBursts::8       576792                       # Per bank write bursts (Count)
system.mem_ctrls.dram.perBankRdBursts::9       567329                       # Per bank write bursts (Count)
system.mem_ctrls.dram.perBankRdBursts::10       650969                       # Per bank write bursts (Count)
system.mem_ctrls.dram.perBankRdBursts::11       602474                       # Per bank write bursts (Count)
system.mem_ctrls.dram.perBankRdBursts::12       605574                       # Per bank write bursts (Count)
system.mem_ctrls.dram.perBankRdBursts::13       650858                       # Per bank write bursts (Count)
system.mem_ctrls.dram.perBankRdBursts::14       590621                       # Per bank write bursts (Count)
system.mem_ctrls.dram.perBankRdBursts::15       598043                       # Per bank write bursts (Count)
system.mem_ctrls.dram.perBankWrBursts::0       572557                       # Per bank write bursts (Count)
system.mem_ctrls.dram.perBankWrBursts::1       566116                       # Per bank write bursts (Count)
system.mem_ctrls.dram.perBankWrBursts::2       563847                       # Per bank write bursts (Count)
system.mem_ctrls.dram.perBankWrBursts::3       580606                       # Per bank write bursts (Count)
system.mem_ctrls.dram.perBankWrBursts::4       549333                       # Per bank write bursts (Count)
system.mem_ctrls.dram.perBankWrBursts::5       574227                       # Per bank write bursts (Count)
system.mem_ctrls.dram.perBankWrBursts::6       560840                       # Per bank write bursts (Count)
system.mem_ctrls.dram.perBankWrBursts::7       558688                       # Per bank write bursts (Count)
system.mem_ctrls.dram.perBankWrBursts::8       575462                       # Per bank write bursts (Count)
system.mem_ctrls.dram.perBankWrBursts::9       555307                       # Per bank write bursts (Count)
system.mem_ctrls.dram.perBankWrBursts::10       572865                       # Per bank write bursts (Count)
system.mem_ctrls.dram.perBankWrBursts::11       558554                       # Per bank write bursts (Count)
system.mem_ctrls.dram.perBankWrBursts::12       581749                       # Per bank write bursts (Count)
system.mem_ctrls.dram.perBankWrBursts::13       568706                       # Per bank write bursts (Count)
system.mem_ctrls.dram.perBankWrBursts::14       573782                       # Per bank write bursts (Count)
system.mem_ctrls.dram.perBankWrBursts::15       554283                       # Per bank write bursts (Count)
system.mem_ctrls.dram.totQLat            109208690500                       # Total ticks spent queuing (Tick)
system.mem_ctrls.dram.totBusLat           47625160000                       # Total ticks spent in databus transfers (Tick)
system.mem_ctrls.dram.totMemAccLat       287803040500                       # Total ticks spent from burst creation until serviced by the DRAM (Tick)
system.mem_ctrls.dram.avgQLat                11465.44                       # Average queueing delay per DRAM burst ((Tick/Count))
system.mem_ctrls.dram.avgBusLat               5000.00                       # Average bus latency per DRAM burst ((Tick/Count))
system.mem_ctrls.dram.avgMemAccLat           30215.44                       # Average memory access latency per DRAM burst ((Tick/Count))
system.mem_ctrls.dram.readRowHits             8156761                       # Number of row buffer hits during reads (Count)
system.mem_ctrls.dram.writeRowHits            7976017                       # Number of row buffer hits during writes (Count)
system.mem_ctrls.dram.readRowHitRate            85.63                       # Row buffer hit rate for reads (Ratio)
system.mem_ctrls.dram.writeRowHitRate           87.97                       # Row buffer hit rate for writes (Ratio)
system.mem_ctrls.dram.bytesPerActivate::samples      2459176                       # Bytes accessed per row activation (Byte)
system.mem_ctrls.dram.bytesPerActivate::mean   483.855184                       # Bytes accessed per row activation (Byte)
system.mem_ctrls.dram.bytesPerActivate::gmean   247.989977                       # Bytes accessed per row activation (Byte)
system.mem_ctrls.dram.bytesPerActivate::stdev   444.566186                       # Bytes accessed per row activation (Byte)
system.mem_ctrls.dram.bytesPerActivate::0-127       991704     40.33%     40.33% # Bytes accessed per row activation (Byte)
system.mem_ctrls.dram.bytesPerActivate::128-255       262826     10.69%     51.01% # Bytes accessed per row activation (Byte)
system.mem_ctrls.dram.bytesPerActivate::256-383        84376      3.43%     54.45% # Bytes accessed per row activation (Byte)
system.mem_ctrls.dram.bytesPerActivate::384-511        56543      2.30%     56.74% # Bytes accessed per row activation (Byte)
system.mem_ctrls.dram.bytesPerActivate::512-639        47843      1.95%     58.69% # Bytes accessed per row activation (Byte)
system.mem_ctrls.dram.bytesPerActivate::640-767        48827      1.99%     60.68% # Bytes accessed per row activation (Byte)
system.mem_ctrls.dram.bytesPerActivate::768-895        20097      0.82%     61.49% # Bytes accessed per row activation (Byte)
system.mem_ctrls.dram.bytesPerActivate::896-1023        33425      1.36%     62.85% # Bytes accessed per row activation (Byte)
system.mem_ctrls.dram.bytesPerActivate::1024-1151       913535     37.15%    100.00% # Bytes accessed per row activation (Byte)
system.mem_ctrls.dram.bytesPerActivate::total      2459176                       # Bytes accessed per row activation (Byte)
system.mem_ctrls.dram.bytesRead             609602048                       # Total bytes read (Byte)
system.mem_ctrls.dram.bytesWritten          580283008                       # Total bytes written (Byte)
system.mem_ctrls.dram.avgRdBW              645.005772                       # Average DRAM read bandwidth in MiBytes/s ((Byte/Second))
system.mem_ctrls.dram.avgWrBW              613.983977                       # Average DRAM write bandwidth in MiBytes/s ((Byte/Second))
system.mem_ctrls.dram.peakBW                 12800.00                       # Theoretical peak bandwidth in MiByte/s ((Byte/Second))
system.mem_ctrls.dram.busUtil                    9.84                       # Data bus utilization in percentage (Ratio)
system.mem_ctrls.dram.busUtilRead                5.04                       # Data bus utilization in percentage for reads (Ratio)
system.mem_ctrls.dram.busUtilWrite               4.80                       # Data bus utilization in percentage for writes (Ratio)
system.mem_ctrls.dram.pageHitRate               86.77                       # Row buffer hit rate, read and write combined (Ratio)
system.mem_ctrls.dram.power_state.pwrStateResidencyTicks::UNDEFINED 945110996000                       # Cumulative time (in ticks) in various power states (Tick)
system.mem_ctrls.dram.rank0.actEnergy      8435660100                       # Energy for activate commands per rank (pJ) (Joule)
system.mem_ctrls.dram.rank0.preEnergy      4483659675                       # Energy for precharge commands per rank (pJ) (Joule)
system.mem_ctrls.dram.rank0.readEnergy    33432136080                       # Energy for read commands per rank (pJ) (Joule)
system.mem_ctrls.dram.rank0.writeEnergy   23626837080                       # Energy for write commands per rank (pJ) (Joule)
system.mem_ctrls.dram.rank0.refreshEnergy 74606232480.000015                       # Energy for refresh commands per rank (pJ) (Joule)
system.mem_ctrls.dram.rank0.actBackEnergy 329860215240                       # Energy for active background per rank (pJ) (Joule)
system.mem_ctrls.dram.rank0.preBackEnergy  85145599200                       # Energy for precharge background per rank (pJ) (Joule)
system.mem_ctrls.dram.rank0.actPowerDownEnergy            0                       # Energy for active power-down per rank (pJ) (Joule)
system.mem_ctrls.dram.rank0.prePowerDownEnergy            0                       # Energy for precharge power-down per rank (pJ) (Joule)
system.mem_ctrls.dram.rank0.selfRefreshEnergy            0                       # Energy for self refresh per rank (pJ) (Joule)
system.mem_ctrls.dram.rank0.totalEnergy  559590339855                       # Total energy per rank (pJ) (Joule)
system.mem_ctrls.dram.rank0.averagePower   592.089545                       # Core power per rank (mW) (Watt)
system.mem_ctrls.dram.rank0.totalIdleTime            0                       # Total Idle time Per DRAM Rank (Tick)
system.mem_ctrls.dram.rank0.pwrStateTime::IDLE 215945666250                       # Time in different power states (Tick)
system.mem_ctrls.dram.rank0.pwrStateTime::REF  31559320000                       # Time in different power states (Tick)
system.mem_ctrls.dram.rank0.pwrStateTime::SREF            0                       # Time in different power states (Tick)
system.mem_ctrls.dram.rank0.pwrStateTime::PRE_PDN            0                       # Time in different power states (Tick)
system.mem_ctrls.dram.rank0.pwrStateTime::ACT 697606009750                       # Time in different power states (Tick)
system.mem_ctrls.dram.rank0.pwrStateTime::ACT_PDN            0                       # Time in different power states (Tick)
system.mem_ctrls.dram.rank1.actEnergy      9122856540                       # Energy for activate commands per rank (pJ) (Joule)
system.mem_ctrls.dram.rank1.preEnergy      4848913245                       # Energy for precharge commands per rank (pJ) (Joule)
system.mem_ctrls.dram.rank1.readEnergy    34576592400                       # Energy for read commands per rank (pJ) (Joule)
system.mem_ctrls.dram.rank1.writeEnergy   23702495760                       # Energy for write commands per rank (pJ) (Joule)
system.mem_ctrls.dram.rank1.refreshEnergy 74606232480.000015                       # Energy for refresh commands per rank (pJ) (Joule)
system.mem_ctrls.dram.rank1.actBackEnergy 333589125030                       # Energy for active background per rank (pJ) (Joule)
system.mem_ctrls.dram.rank1.preBackEnergy  82005464640                       # Energy for precharge background per rank (pJ) (Joule)
system.mem_ctrls.dram.rank1.actPowerDownEnergy            0                       # Energy for active power-down per rank (pJ) (Joule)
system.mem_ctrls.dram.rank1.prePowerDownEnergy            0                       # Energy for precharge power-down per rank (pJ) (Joule)
system.mem_ctrls.dram.rank1.selfRefreshEnergy            0                       # Energy for self refresh per rank (pJ) (Joule)
system.mem_ctrls.dram.rank1.totalEnergy  562451680095                       # Total energy per rank (pJ) (Joule)
system.mem_ctrls.dram.rank1.averagePower   595.117063                       # Core power per rank (mW) (Watt)
system.mem_ctrls.dram.rank1.totalIdleTime            0                       # Total Idle time Per DRAM Rank (Tick)
system.mem_ctrls.dram.rank1.pwrStateTime::IDLE 207774187500                       # Time in different power states (Tick)
system.mem_ctrls.dram.rank1.pwrStateTime::REF  31559320000                       # Time in different power states (Tick)
system.mem_ctrls.dram.rank1.pwrStateTime::SREF            0                       # Time in different power states (Tick)
system.mem_ctrls.dram.rank1.pwrStateTime::PRE_PDN            0                       # Time in different power states (Tick)
system.mem_ctrls.dram.rank1.pwrStateTime::ACT 705777488500                       # Time in different power states (Tick)
system.mem_ctrls.dram.rank1.pwrStateTime::ACT_PDN            0                       # Time in different power states (Tick)
system.mem_ctrls.power_state.pwrStateResidencyTicks::UNDEFINED 945110996000                       # Cumulative time (in ticks) in various power states (Tick)
system.membus.transDist::ReadResp              966915                       # Transaction distribution (Count)
system.membus.transDist::WritebackDirty       8981409                       # Transaction distribution (Count)
system.membus.transDist::WritebackClean         92527                       # Transaction distribution (Count)
system.membus.transDist::CleanEvict            570697                       # Transaction distribution (Count)
system.membus.transDist::UpgradeReq                 1                       # Transaction distribution (Count)
system.membus.transDist::ReadExReq            8678743                       # Transaction distribution (Count)
system.membus.transDist::ReadExResp           8678743                       # Transaction distribution (Count)
system.membus.transDist::ReadCleanReq           93040                       # Transaction distribution (Count)
system.membus.transDist::ReadSharedReq         873875                       # Transaction distribution (Count)
system.membus.pktCount_system.cpu.icache.mem_side_port::system.mem_ctrls.port       278606                       # Packet count per connected requestor and responder (Count)
system.membus.pktCount_system.cpu.icache.mem_side_port::total       278606                       # Packet count per connected requestor and responder (Count)
system.membus.pktCount_system.cpu.dcache.mem_side_port::system.mem_ctrls.port     28657343                       # Packet count per connected requestor and responder (Count)
system.membus.pktCount_system.cpu.dcache.mem_side_port::total     28657343                       # Packet count per connected requestor and responder (Count)
system.membus.pktCount::total                28935949                       # Packet count per connected requestor and responder (Count)
system.membus.pktSize_system.cpu.icache.mem_side_port::system.mem_ctrls.port     11876224                       # Cumulative packet size per connected requestor and responder (Byte)
system.membus.pktSize_system.cpu.icache.mem_side_port::total     11876224                       # Cumulative packet size per connected requestor and responder (Byte)
system.membus.pktSize_system.cpu.dcache.mem_side_port::system.mem_ctrls.port   1186177728                       # Cumulative packet size per connected requestor and responder (Byte)
system.membus.pktSize_system.cpu.dcache.mem_side_port::total   1186177728                       # Cumulative packet size per connected requestor and responder (Byte)
system.membus.pktSize::total               1198053952                       # Cumulative packet size per connected requestor and responder (Byte)
system.membus.snoops                                1                       # Total snoops (Count)
system.membus.snoopTraffic                         64                       # Total snoop traffic (Byte)
system.membus.snoopFanout::samples            9645659                       # Request fanout histogram (Count)
system.membus.snoopFanout::mean              0.000002                       # Request fanout histogram (Count)
system.membus.snoopFanout::stdev             0.001510                       # Request fanout histogram (Count)
system.membus.snoopFanout::underflows               0      0.00%      0.00% # Request fanout histogram (Count)
system.membus.snoopFanout::0                  9645637    100.00%    100.00% # Request fanout histogram (Count)
system.membus.snoopFanout::1                       22      0.00%    100.00% # Request fanout histogram (Count)
system.membus.snoopFanout::2                        0      0.00%    100.00% # Request fanout histogram (Count)
system.membus.snoopFanout::3                        0      0.00%    100.00% # Request fanout histogram (Count)
system.membus.snoopFanout::4                        0      0.00%    100.00% # Request fanout histogram (Count)
system.membus.snoopFanout::overflows                0      0.00%    100.00% # Request fanout histogram (Count)
system.membus.snoopFanout::min_value                0                       # Request fanout histogram (Count)
system.membus.snoopFanout::max_value                1                       # Request fanout histogram (Count)
system.membus.snoopFanout::total              9645659                       # Request fanout histogram (Count)
system.membus.power_state.pwrStateResidencyTicks::UNDEFINED 945110996000                       # Cumulative time (in ticks) in various power states (Tick)
system.membus.reqLayer2.occupancy         55892717000                       # Layer occupancy (ticks) (Tick)
system.membus.reqLayer2.utilization               0.1                       # Layer utilization (Ratio)
system.membus.respLayer1.occupancy          495624747                       # Layer occupancy (ticks) (Tick)
system.membus.respLayer1.utilization              0.0                       # Layer utilization (Ratio)
system.membus.respLayer2.occupancy        50534814498                       # Layer occupancy (ticks) (Tick)
system.membus.respLayer2.utilization              0.1                       # Layer utilization (Ratio)
system.membus.snoop_filter.totRequests       19290292                       # Total number of requests made to the snoop filter. (Count)
system.membus.snoop_filter.hitSingleRequests      9644633                       # Number of requests hitting in the snoop filter with a single holder of the requested data. (Count)
system.membus.snoop_filter.hitMultiRequests           22                       # Number of requests hitting in the snoop filter with multiple (>1) holders of the requested data. (Count)
system.membus.snoop_filter.totSnoops                0                       # Total number of snoops made to the snoop filter. (Count)
system.membus.snoop_filter.hitSingleSnoops            0                       # Number of snoops hitting in the snoop filter with a single holder of the requested data. (Count)
system.membus.snoop_filter.hitMultiSnoops            0                       # Number of snoops hitting in the snoop filter with multiple (>1) holders of the requested data. (Count)
system.voltage_domain.voltage                       1                       # Voltage in Volts (Volt)
system.workload.inst.arm                            0                       # number of arm instructions executed (Count)
system.workload.inst.quiesce                        0                       # number of quiesce instructions executed (Count)

---------- End Simulation Statistics   ----------
