
---------- Begin Simulation Statistics ----------
simSeconds                                   0.142431                       # Number of seconds simulated (Second)
simTicks                                 142431195000                       # Number of ticks simulated (Tick)
finalTick                                142431195000                       # Number of ticks from beginning of simulation (restored from checkpoints and never reset) (Tick)
simFreq                                  1000000000000                       # The number of ticks per simulated second ((Tick/Second))
hostSeconds                                   4751.66                       # Real time elapsed on the host (Second)
hostTickRate                                 29975061                       # The number of ticks simulated per host second (ticks/s) ((Tick/Second))
hostMemory                                    8719860                       # Number of bytes of host memory used (Byte)
simInsts                                    513843019                       # Number of instructions simulated (Count)
simOps                                      955552536                       # Number of ops (including micro ops) simulated (Count)
hostInstRate                                   108140                       # Simulator instruction rate (inst/s) ((Count/Second))
hostOpRate                                     201099                       # Simulator op (including micro ops) rate (op/s) ((Count/Second))
system.clk_domain.clock                          1000                       # Clock period in ticks (Tick)
system.cpu.numCycles                        284862391                       # Number of cpu cycles simulated (Cycle)
system.cpu.numWorkItemsStarted                      0                       # Number of work items this cpu started (Count)
system.cpu.numWorkItemsCompleted                    0                       # Number of work items this cpu completed (Count)
system.cpu.instsAdded                      1014726035                       # Number of instructions added to the IQ (excludes non-spec) (Count)
system.cpu.nonSpecInstsAdded                       91                       # Number of non-speculative instructions added to the IQ (Count)
system.cpu.instsIssued                      995601171                       # Number of instructions issued (Count)
system.cpu.squashedInstsIssued                 178330                       # Number of squashed instructions issued (Count)
system.cpu.squashedInstsExamined             59173584                       # Number of squashed instructions iterated over during squash; mainly for profiling (Count)
system.cpu.squashedOperandsExamined         111441193                       # Number of squashed operands that are examined and possibly removed from graph (Count)
system.cpu.squashedNonSpecRemoved                  55                       # Number of squashed non-spec instructions that were removed (Count)
system.cpu.numIssuedDist::samples           284800455                       # Number of insts issued each cycle (Count)
system.cpu.numIssuedDist::mean               3.495785                       # Number of insts issued each cycle (Count)
system.cpu.numIssuedDist::stdev              2.164878                       # Number of insts issued each cycle (Count)
system.cpu.numIssuedDist::underflows                0      0.00%      0.00% # Number of insts issued each cycle (Count)
system.cpu.numIssuedDist::0                  26272265      9.22%      9.22% # Number of insts issued each cycle (Count)
system.cpu.numIssuedDist::1                  31452579     11.04%     20.27% # Number of insts issued each cycle (Count)
system.cpu.numIssuedDist::2                  44673911     15.69%     35.95% # Number of insts issued each cycle (Count)
system.cpu.numIssuedDist::3                  45366363     15.93%     51.88% # Number of insts issued each cycle (Count)
system.cpu.numIssuedDist::4                  42498067     14.92%     66.81% # Number of insts issued each cycle (Count)
system.cpu.numIssuedDist::5                  37015680     13.00%     79.80% # Number of insts issued each cycle (Count)
system.cpu.numIssuedDist::6                  29058947     10.20%     90.01% # Number of insts issued each cycle (Count)
system.cpu.numIssuedDist::7                  18423813      6.47%     96.48% # Number of insts issued each cycle (Count)
system.cpu.numIssuedDist::8                  10038830      3.52%    100.00% # Number of insts issued each cycle (Count)
system.cpu.numIssuedDist::overflows                 0      0.00%    100.00% # Number of insts issued each cycle (Count)
system.cpu.numIssuedDist::min_value                 0                       # Number of insts issued each cycle (Count)
system.cpu.numIssuedDist::max_value                 8                       # Number of insts issued each cycle (Count)
system.cpu.numIssuedDist::total             284800455                       # Number of insts issued each cycle (Count)
system.cpu.statFuBusy::No_OpClass                   0      0.00%      0.00% # attempts to use FU when none available (Count)
system.cpu.statFuBusy::IntAlu                13735041     86.12%     86.12% # attempts to use FU when none available (Count)
system.cpu.statFuBusy::IntMult                      0      0.00%     86.12% # attempts to use FU when none available (Count)
system.cpu.statFuBusy::IntDiv                       0      0.00%     86.12% # attempts to use FU when none available (Count)
system.cpu.statFuBusy::FloatAdd                     0      0.00%     86.12% # attempts to use FU when none available (Count)
system.cpu.statFuBusy::FloatCmp                     0      0.00%     86.12% # attempts to use FU when none available (Count)
system.cpu.statFuBusy::FloatCvt                     0      0.00%     86.12% # attempts to use FU when none available (Count)
system.cpu.statFuBusy::FloatMult                    0      0.00%     86.12% # attempts to use FU when none available (Count)
system.cpu.statFuBusy::FloatMultAcc                 0      0.00%     86.12% # attempts to use FU when none available (Count)
system.cpu.statFuBusy::FloatDiv                     0      0.00%     86.12% # attempts to use FU when none available (Count)
system.cpu.statFuBusy::FloatMisc                    0      0.00%     86.12% # attempts to use FU when none available (Count)
system.cpu.statFuBusy::FloatSqrt                    0      0.00%     86.12% # attempts to use FU when none available (Count)
system.cpu.statFuBusy::SimdAdd                      0      0.00%     86.12% # attempts to use FU when none available (Count)
system.cpu.statFuBusy::SimdAddAcc                   0      0.00%     86.12% # attempts to use FU when none available (Count)
system.cpu.statFuBusy::SimdAlu                      1      0.00%     86.12% # attempts to use FU when none available (Count)
system.cpu.statFuBusy::SimdCmp                      0      0.00%     86.12% # attempts to use FU when none available (Count)
system.cpu.statFuBusy::SimdCvt                      3      0.00%     86.12% # attempts to use FU when none available (Count)
system.cpu.statFuBusy::SimdMisc                 47005      0.29%     86.42% # attempts to use FU when none available (Count)
system.cpu.statFuBusy::SimdMult                     0      0.00%     86.42% # attempts to use FU when none available (Count)
system.cpu.statFuBusy::SimdMultAcc                  0      0.00%     86.42% # attempts to use FU when none available (Count)
system.cpu.statFuBusy::SimdShift                    0      0.00%     86.42% # attempts to use FU when none available (Count)
system.cpu.statFuBusy::SimdShiftAcc                 0      0.00%     86.42% # attempts to use FU when none available (Count)
system.cpu.statFuBusy::SimdDiv                      0      0.00%     86.42% # attempts to use FU when none available (Count)
system.cpu.statFuBusy::SimdSqrt                     0      0.00%     86.42% # attempts to use FU when none available (Count)
system.cpu.statFuBusy::SimdFloatAdd                 0      0.00%     86.42% # attempts to use FU when none available (Count)
system.cpu.statFuBusy::SimdFloatAlu                 0      0.00%     86.42% # attempts to use FU when none available (Count)
system.cpu.statFuBusy::SimdFloatCmp                 0      0.00%     86.42% # attempts to use FU when none available (Count)
system.cpu.statFuBusy::SimdFloatCvt                 0      0.00%     86.42% # attempts to use FU when none available (Count)
system.cpu.statFuBusy::SimdFloatDiv                 0      0.00%     86.42% # attempts to use FU when none available (Count)
system.cpu.statFuBusy::SimdFloatMisc                0      0.00%     86.42% # attempts to use FU when none available (Count)
system.cpu.statFuBusy::SimdFloatMult                0      0.00%     86.42% # attempts to use FU when none available (Count)
system.cpu.statFuBusy::SimdFloatMultAcc             0      0.00%     86.42% # attempts to use FU when none available (Count)
system.cpu.statFuBusy::SimdFloatSqrt                0      0.00%     86.42% # attempts to use FU when none available (Count)
system.cpu.statFuBusy::SimdReduceAdd                0      0.00%     86.42% # attempts to use FU when none available (Count)
system.cpu.statFuBusy::SimdReduceAlu                0      0.00%     86.42% # attempts to use FU when none available (Count)
system.cpu.statFuBusy::SimdReduceCmp                0      0.00%     86.42% # attempts to use FU when none available (Count)
system.cpu.statFuBusy::SimdFloatReduceAdd            0      0.00%     86.42% # attempts to use FU when none available (Count)
system.cpu.statFuBusy::SimdFloatReduceCmp            0      0.00%     86.42% # attempts to use FU when none available (Count)
system.cpu.statFuBusy::SimdAes                      0      0.00%     86.42% # attempts to use FU when none available (Count)
system.cpu.statFuBusy::SimdAesMix                   0      0.00%     86.42% # attempts to use FU when none available (Count)
system.cpu.statFuBusy::SimdSha1Hash                 0      0.00%     86.42% # attempts to use FU when none available (Count)
system.cpu.statFuBusy::SimdSha1Hash2                0      0.00%     86.42% # attempts to use FU when none available (Count)
system.cpu.statFuBusy::SimdSha256Hash               0      0.00%     86.42% # attempts to use FU when none available (Count)
system.cpu.statFuBusy::SimdSha256Hash2              0      0.00%     86.42% # attempts to use FU when none available (Count)
system.cpu.statFuBusy::SimdShaSigma2                0      0.00%     86.42% # attempts to use FU when none available (Count)
system.cpu.statFuBusy::SimdShaSigma3                0      0.00%     86.42% # attempts to use FU when none available (Count)
system.cpu.statFuBusy::SimdPredAlu                  0      0.00%     86.42% # attempts to use FU when none available (Count)
system.cpu.statFuBusy::MemRead                 538875      3.38%     89.80% # attempts to use FU when none available (Count)
system.cpu.statFuBusy::MemWrite                918056      5.76%     95.55% # attempts to use FU when none available (Count)
system.cpu.statFuBusy::FloatMemRead                16      0.00%     95.55% # attempts to use FU when none available (Count)
system.cpu.statFuBusy::FloatMemWrite           709261      4.45%    100.00% # attempts to use FU when none available (Count)
system.cpu.statFuBusy::IprAccess                    0      0.00%    100.00% # attempts to use FU when none available (Count)
system.cpu.statFuBusy::InstPrefetch                 0      0.00%    100.00% # attempts to use FU when none available (Count)
system.cpu.statIssuedInstType_0::No_OpClass      1892079      0.19%      0.19% # Number of instructions issued per FU type, per thread (Count)
system.cpu.statIssuedInstType_0::IntAlu     786908251     79.04%     79.23% # Number of instructions issued per FU type, per thread (Count)
system.cpu.statIssuedInstType_0::IntMult      4925288      0.49%     79.72% # Number of instructions issued per FU type, per thread (Count)
system.cpu.statIssuedInstType_0::IntDiv          7166      0.00%     79.72% # Number of instructions issued per FU type, per thread (Count)
system.cpu.statIssuedInstType_0::FloatAdd      1129334      0.11%     79.84% # Number of instructions issued per FU type, per thread (Count)
system.cpu.statIssuedInstType_0::FloatCmp            0      0.00%     79.84% # Number of instructions issued per FU type, per thread (Count)
system.cpu.statIssuedInstType_0::FloatCvt           64      0.00%     79.84% # Number of instructions issued per FU type, per thread (Count)
system.cpu.statIssuedInstType_0::FloatMult            0      0.00%     79.84% # Number of instructions issued per FU type, per thread (Count)
system.cpu.statIssuedInstType_0::FloatMultAcc            0      0.00%     79.84% # Number of instructions issued per FU type, per thread (Count)
system.cpu.statIssuedInstType_0::FloatDiv            0      0.00%     79.84% # Number of instructions issued per FU type, per thread (Count)
system.cpu.statIssuedInstType_0::FloatMisc            0      0.00%     79.84% # Number of instructions issued per FU type, per thread (Count)
system.cpu.statIssuedInstType_0::FloatSqrt            0      0.00%     79.84% # Number of instructions issued per FU type, per thread (Count)
system.cpu.statIssuedInstType_0::SimdAdd            0      0.00%     79.84% # Number of instructions issued per FU type, per thread (Count)
system.cpu.statIssuedInstType_0::SimdAddAcc            0      0.00%     79.84% # Number of instructions issued per FU type, per thread (Count)
system.cpu.statIssuedInstType_0::SimdAlu      3527909      0.35%     80.19% # Number of instructions issued per FU type, per thread (Count)
system.cpu.statIssuedInstType_0::SimdCmp            0      0.00%     80.19% # Number of instructions issued per FU type, per thread (Count)
system.cpu.statIssuedInstType_0::SimdCvt      2726223      0.27%     80.47% # Number of instructions issued per FU type, per thread (Count)
system.cpu.statIssuedInstType_0::SimdMisc      7663250      0.77%     81.24% # Number of instructions issued per FU type, per thread (Count)
system.cpu.statIssuedInstType_0::SimdMult            0      0.00%     81.24% # Number of instructions issued per FU type, per thread (Count)
system.cpu.statIssuedInstType_0::SimdMultAcc            0      0.00%     81.24% # Number of instructions issued per FU type, per thread (Count)
system.cpu.statIssuedInstType_0::SimdShift            0      0.00%     81.24% # Number of instructions issued per FU type, per thread (Count)
system.cpu.statIssuedInstType_0::SimdShiftAcc            0      0.00%     81.24% # Number of instructions issued per FU type, per thread (Count)
system.cpu.statIssuedInstType_0::SimdDiv            0      0.00%     81.24% # Number of instructions issued per FU type, per thread (Count)
system.cpu.statIssuedInstType_0::SimdSqrt            0      0.00%     81.24% # Number of instructions issued per FU type, per thread (Count)
system.cpu.statIssuedInstType_0::SimdFloatAdd        48412      0.00%     81.24% # Number of instructions issued per FU type, per thread (Count)
system.cpu.statIssuedInstType_0::SimdFloatAlu            0      0.00%     81.24% # Number of instructions issued per FU type, per thread (Count)
system.cpu.statIssuedInstType_0::SimdFloatCmp            0      0.00%     81.24% # Number of instructions issued per FU type, per thread (Count)
system.cpu.statIssuedInstType_0::SimdFloatCvt      1035815      0.10%     81.34% # Number of instructions issued per FU type, per thread (Count)
system.cpu.statIssuedInstType_0::SimdFloatDiv        47529      0.00%     81.35% # Number of instructions issued per FU type, per thread (Count)
system.cpu.statIssuedInstType_0::SimdFloatMisc            0      0.00%     81.35% # Number of instructions issued per FU type, per thread (Count)
system.cpu.statIssuedInstType_0::SimdFloatMult       988286      0.10%     81.45% # Number of instructions issued per FU type, per thread (Count)
system.cpu.statIssuedInstType_0::SimdFloatMultAcc            0      0.00%     81.45% # Number of instructions issued per FU type, per thread (Count)
system.cpu.statIssuedInstType_0::SimdFloatSqrt            0      0.00%     81.45% # Number of instructions issued per FU type, per thread (Count)
system.cpu.statIssuedInstType_0::SimdReduceAdd            0      0.00%     81.45% # Number of instructions issued per FU type, per thread (Count)
system.cpu.statIssuedInstType_0::SimdReduceAlu            0      0.00%     81.45% # Number of instructions issued per FU type, per thread (Count)
system.cpu.statIssuedInstType_0::SimdReduceCmp            0      0.00%     81.45% # Number of instructions issued per FU type, per thread (Count)
system.cpu.statIssuedInstType_0::SimdFloatReduceAdd            0      0.00%     81.45% # Number of instructions issued per FU type, per thread (Count)
system.cpu.statIssuedInstType_0::SimdFloatReduceCmp            0      0.00%     81.45% # Number of instructions issued per FU type, per thread (Count)
system.cpu.statIssuedInstType_0::SimdAes            0      0.00%     81.45% # Number of instructions issued per FU type, per thread (Count)
system.cpu.statIssuedInstType_0::SimdAesMix            0      0.00%     81.45% # Number of instructions issued per FU type, per thread (Count)
system.cpu.statIssuedInstType_0::SimdSha1Hash            0      0.00%     81.45% # Number of instructions issued per FU type, per thread (Count)
system.cpu.statIssuedInstType_0::SimdSha1Hash2            0      0.00%     81.45% # Number of instructions issued per FU type, per thread (Count)
system.cpu.statIssuedInstType_0::SimdSha256Hash            0      0.00%     81.45% # Number of instructions issued per FU type, per thread (Count)
system.cpu.statIssuedInstType_0::SimdSha256Hash2            0      0.00%     81.45% # Number of instructions issued per FU type, per thread (Count)
system.cpu.statIssuedInstType_0::SimdShaSigma2            0      0.00%     81.45% # Number of instructions issued per FU type, per thread (Count)
system.cpu.statIssuedInstType_0::SimdShaSigma3            0      0.00%     81.45% # Number of instructions issued per FU type, per thread (Count)
system.cpu.statIssuedInstType_0::SimdPredAlu            0      0.00%     81.45% # Number of instructions issued per FU type, per thread (Count)
system.cpu.statIssuedInstType_0::MemRead    104164451     10.46%     91.91% # Number of instructions issued per FU type, per thread (Count)
system.cpu.statIssuedInstType_0::MemWrite     74580281      7.49%     99.40% # Number of instructions issued per FU type, per thread (Count)
system.cpu.statIssuedInstType_0::FloatMemRead      3246802      0.33%     99.73% # Number of instructions issued per FU type, per thread (Count)
system.cpu.statIssuedInstType_0::FloatMemWrite      2710031      0.27%    100.00% # Number of instructions issued per FU type, per thread (Count)
system.cpu.statIssuedInstType_0::IprAccess            0      0.00%    100.00% # Number of instructions issued per FU type, per thread (Count)
system.cpu.statIssuedInstType_0::InstPrefetch            0      0.00%    100.00% # Number of instructions issued per FU type, per thread (Count)
system.cpu.statIssuedInstType_0::total      995601171                       # Number of instructions issued per FU type, per thread (Count)
system.cpu.issueRate                         3.495025                       # Inst issue rate ((Count/Cycle))
system.cpu.fuBusy                            15948258                       # FU busy when requested (Count)
system.cpu.fuBusyRate                        0.016019                       # FU busy rate (busy events/executed inst) ((Count/Count))
system.cpu.intInstQueueReads               2241083505                       # Number of integer instruction queue reads (Count)
system.cpu.intInstQueueWrites              1047706935                       # Number of integer instruction queue writes (Count)
system.cpu.intInstQueueWakeupAccesses       965395243                       # Number of integer instruction queue wakeup accesses (Count)
system.cpu.fpInstQueueReads                  51045880                       # Number of floating instruction queue reads (Count)
system.cpu.fpInstQueueWrites                 26204511                       # Number of floating instruction queue writes (Count)
system.cpu.fpInstQueueWakeupAccesses         25096441                       # Number of floating instruction queue wakeup accesses (Count)
system.cpu.vecInstQueueReads                        0                       # Number of vector instruction queue reads (Count)
system.cpu.vecInstQueueWrites                       0                       # Number of vector instruction queue writes (Count)
system.cpu.vecInstQueueWakeupAccesses               0                       # Number of vector instruction queue wakeup accesses (Count)
system.cpu.intAluAccesses                   983756290                       # Number of integer alu accesses (Count)
system.cpu.fpAluAccesses                     25901060                       # Number of floating point alu accesses (Count)
system.cpu.vecAluAccesses                           0                       # Number of vector alu accesses (Count)
system.cpu.numInsts                         992086384                       # Number of executed instructions (Count)
system.cpu.numLoadInsts                     106905108                       # Number of load instructions executed (Count)
system.cpu.numSquashedInsts                   3514787                       # Number of squashed instructions skipped in execute (Count)
system.cpu.numSwp                                   0                       # Number of swp insts executed (Count)
system.cpu.numNop                                   0                       # Number of nop insts executed (Count)
system.cpu.numRefs                          183825254                       # Number of memory reference insts executed (Count)
system.cpu.numBranches                      104205827                       # Number of branches executed (Count)
system.cpu.numStoreInsts                     76920146                       # Number of stores executed (Count)
system.cpu.numRate                           3.482686                       # Inst execution rate ((Count/Cycle))
system.cpu.timesIdled                             709                       # Number of times that the entire CPU went into an idle state and unscheduled itself (Count)
system.cpu.idleCycles                           61936                       # Total number of cycles that the CPU has spent unscheduled due to idling (Cycle)
system.cpu.committedInsts                   513843019                       # Number of Instructions Simulated (Count)
system.cpu.committedOps                     955552536                       # Number of Ops (including micro ops) Simulated (Count)
system.cpu.cpi                               0.554376                       # CPI: Cycles Per Instruction ((Cycle/Count))
system.cpu.totalCpi                          0.554376                       # CPI: Total CPI of All Threads ((Cycle/Count))
system.cpu.ipc                               1.803829                       # IPC: Instructions Per Cycle ((Count/Cycle))
system.cpu.totalIpc                          1.803829                       # IPC: Total IPC of All Threads ((Count/Cycle))
system.cpu.intRegfileReads                 1291997274                       # Number of integer regfile reads (Count)
system.cpu.intRegfileWrites                 727825306                       # Number of integer regfile writes (Count)
system.cpu.fpRegfileReads                    39015292                       # Number of floating regfile reads (Count)
system.cpu.fpRegfileWrites                   19330019                       # Number of floating regfile writes (Count)
system.cpu.ccRegfileReads                   522976158                       # number of cc regfile reads (Count)
system.cpu.ccRegfileWrites                  371337602                       # number of cc regfile writes (Count)
system.cpu.miscRegfileReads                 393865869                       # number of misc regfile reads (Count)
system.cpu.miscRegfileWrites                       36                       # number of misc regfile writes (Count)
system.cpu.MemDepUnit__0.insertedLoads      108274381                       # Number of loads inserted to the mem dependence unit. (Count)
system.cpu.MemDepUnit__0.insertedStores      78704688                       # Number of stores inserted to the mem dependence unit. (Count)
system.cpu.MemDepUnit__0.conflictingLoads      6807499                       # Number of conflicting loads. (Count)
system.cpu.MemDepUnit__0.conflictingStores      5108525                       # Number of conflicting stores. (Count)
system.cpu.MemDepUnit__1.insertedLoads              0                       # Number of loads inserted to the mem dependence unit. (Count)
system.cpu.MemDepUnit__1.insertedStores             0                       # Number of stores inserted to the mem dependence unit. (Count)
system.cpu.MemDepUnit__1.conflictingLoads            0                       # Number of conflicting loads. (Count)
system.cpu.MemDepUnit__1.conflictingStores            0                       # Number of conflicting stores. (Count)
system.cpu.MemDepUnit__2.insertedLoads              0                       # Number of loads inserted to the mem dependence unit. (Count)
system.cpu.MemDepUnit__2.insertedStores             0                       # Number of stores inserted to the mem dependence unit. (Count)
system.cpu.MemDepUnit__2.conflictingLoads            0                       # Number of conflicting loads. (Count)
system.cpu.MemDepUnit__2.conflictingStores            0                       # Number of conflicting stores. (Count)
system.cpu.MemDepUnit__3.insertedLoads              0                       # Number of loads inserted to the mem dependence unit. (Count)
system.cpu.MemDepUnit__3.insertedStores             0                       # Number of stores inserted to the mem dependence unit. (Count)
system.cpu.MemDepUnit__3.conflictingLoads            0                       # Number of conflicting loads. (Count)
system.cpu.MemDepUnit__3.conflictingStores            0                       # Number of conflicting stores. (Count)
system.cpu.branchPred.lookups               110957551                       # Number of BP lookups (Count)
system.cpu.branchPred.condPredicted          78662812                       # Number of conditional branches predicted (Count)
system.cpu.branchPred.condIncorrect           1439389                       # Number of conditional branches incorrect (Count)
system.cpu.branchPred.BTBLookups             54657676                       # Number of BTB lookups (Count)
system.cpu.branchPred.BTBHits                54634693                       # Number of BTB hits (Count)
system.cpu.branchPred.BTBHitRatio            0.999580                       # BTB Hit Ratio (Ratio)
system.cpu.branchPred.RASUsed                11806601                       # Number of times the RAS was used to get a target. (Count)
system.cpu.branchPred.RASIncorrect                  2                       # Number of incorrect RAS predictions. (Count)
system.cpu.branchPred.indirectLookups         2703081                       # Number of indirect predictor lookups. (Count)
system.cpu.branchPred.indirectHits            2701801                       # Number of indirect target hits. (Count)
system.cpu.branchPred.indirectMisses             1280                       # Number of indirect misses. (Count)
system.cpu.branchPred.indirectMispredicted        94174                       # Number of mispredicted indirect branches. (Count)
system.cpu.commit.commitSquashedInsts        59141647                       # The number of squashed insts skipped by commit (Count)
system.cpu.commit.commitNonSpecStalls              36                       # The number of times commit has been forced to stall to communicate backwards (Count)
system.cpu.commit.branchMispredicts           1345086                       # The number of times a branch was mispredicted (Count)
system.cpu.commit.numCommittedDist::samples    276821897                       # Number of insts commited each cycle (Count)
system.cpu.commit.numCommittedDist::mean     3.451868                       # Number of insts commited each cycle (Count)
system.cpu.commit.numCommittedDist::stdev     2.958937                       # Number of insts commited each cycle (Count)
system.cpu.commit.numCommittedDist::underflows            0      0.00%      0.00% # Number of insts commited each cycle (Count)
system.cpu.commit.numCommittedDist::0        39963716     14.44%     14.44% # Number of insts commited each cycle (Count)
system.cpu.commit.numCommittedDist::1        64545189     23.32%     37.75% # Number of insts commited each cycle (Count)
system.cpu.commit.numCommittedDist::2        33635083     12.15%     49.90% # Number of insts commited each cycle (Count)
system.cpu.commit.numCommittedDist::3        33677325     12.17%     62.07% # Number of insts commited each cycle (Count)
system.cpu.commit.numCommittedDist::4        13524063      4.89%     66.95% # Number of insts commited each cycle (Count)
system.cpu.commit.numCommittedDist::5        13859679      5.01%     71.96% # Number of insts commited each cycle (Count)
system.cpu.commit.numCommittedDist::6         6963834      2.52%     74.48% # Number of insts commited each cycle (Count)
system.cpu.commit.numCommittedDist::7         7696509      2.78%     77.26% # Number of insts commited each cycle (Count)
system.cpu.commit.numCommittedDist::8        62956499     22.74%    100.00% # Number of insts commited each cycle (Count)
system.cpu.commit.numCommittedDist::overflows            0      0.00%    100.00% # Number of insts commited each cycle (Count)
system.cpu.commit.numCommittedDist::min_value            0                       # Number of insts commited each cycle (Count)
system.cpu.commit.numCommittedDist::max_value            8                       # Number of insts commited each cycle (Count)
system.cpu.commit.numCommittedDist::total    276821897                       # Number of insts commited each cycle (Count)
system.cpu.commit.instsCommitted            513843019                       # Number of instructions committed (Count)
system.cpu.commit.opsCommitted              955552536                       # Number of ops (including micro ops) committed (Count)
system.cpu.commit.memRefs                   176760699                       # Number of memory references committed (Count)
system.cpu.commit.loads                     101962986                       # Number of loads committed (Count)
system.cpu.commit.amos                              0                       # Number of atomic instructions committed (Count)
system.cpu.commit.membars                           0                       # Number of memory barriers committed (Count)
system.cpu.commit.branches                  100757526                       # Number of branches committed (Count)
system.cpu.commit.vectorInstructions                0                       # Number of committed Vector instructions. (Count)
system.cpu.commit.floating                   24762781                       # Number of committed floating point instructions. (Count)
system.cpu.commit.integer                   937679191                       # Number of committed integer instructions. (Count)
system.cpu.commit.functionCalls              10865688                       # Number of function calls committed. (Count)
system.cpu.commit.committedInstType_0::No_OpClass      1827707      0.19%      0.19% # Class of committed instruction (Count)
system.cpu.commit.committedInstType_0::IntAlu    755135577     79.03%     79.22% # Class of committed instruction (Count)
system.cpu.commit.committedInstType_0::IntMult      4905999      0.51%     79.73% # Class of committed instruction (Count)
system.cpu.commit.committedInstType_0::IntDiv         6944      0.00%     79.73% # Class of committed instruction (Count)
system.cpu.commit.committedInstType_0::FloatAdd      1127721      0.12%     79.85% # Class of committed instruction (Count)
system.cpu.commit.committedInstType_0::FloatCmp            0      0.00%     79.85% # Class of committed instruction (Count)
system.cpu.commit.committedInstType_0::FloatCvt           64      0.00%     79.85% # Class of committed instruction (Count)
system.cpu.commit.committedInstType_0::FloatMult            0      0.00%     79.85% # Class of committed instruction (Count)
system.cpu.commit.committedInstType_0::FloatMultAcc            0      0.00%     79.85% # Class of committed instruction (Count)
system.cpu.commit.committedInstType_0::FloatDiv            0      0.00%     79.85% # Class of committed instruction (Count)
system.cpu.commit.committedInstType_0::FloatMisc            0      0.00%     79.85% # Class of committed instruction (Count)
system.cpu.commit.committedInstType_0::FloatSqrt            0      0.00%     79.85% # Class of committed instruction (Count)
system.cpu.commit.committedInstType_0::SimdAdd            0      0.00%     79.85% # Class of committed instruction (Count)
system.cpu.commit.committedInstType_0::SimdAddAcc            0      0.00%     79.85% # Class of committed instruction (Count)
system.cpu.commit.committedInstType_0::SimdAlu      3289034      0.34%     80.19% # Class of committed instruction (Count)
system.cpu.commit.committedInstType_0::SimdCmp            0      0.00%     80.19% # Class of committed instruction (Count)
system.cpu.commit.committedInstType_0::SimdCvt      2725400      0.29%     80.48% # Class of committed instruction (Count)
system.cpu.commit.committedInstType_0::SimdMisc      7659077      0.80%     81.28% # Class of committed instruction (Count)
system.cpu.commit.committedInstType_0::SimdMult            0      0.00%     81.28% # Class of committed instruction (Count)
system.cpu.commit.committedInstType_0::SimdMultAcc            0      0.00%     81.28% # Class of committed instruction (Count)
system.cpu.commit.committedInstType_0::SimdShift            0      0.00%     81.28% # Class of committed instruction (Count)
system.cpu.commit.committedInstType_0::SimdShiftAcc            0      0.00%     81.28% # Class of committed instruction (Count)
system.cpu.commit.committedInstType_0::SimdDiv            0      0.00%     81.28% # Class of committed instruction (Count)
system.cpu.commit.committedInstType_0::SimdSqrt            0      0.00%     81.28% # Class of committed instruction (Count)
system.cpu.commit.committedInstType_0::SimdFloatAdd        46986      0.00%     81.29% # Class of committed instruction (Count)
system.cpu.commit.committedInstType_0::SimdFloatAlu            0      0.00%     81.29% # Class of committed instruction (Count)
system.cpu.commit.committedInstType_0::SimdFloatCmp            0      0.00%     81.29% # Class of committed instruction (Count)
system.cpu.commit.committedInstType_0::SimdFloatCvt      1033664      0.11%     81.39% # Class of committed instruction (Count)
system.cpu.commit.committedInstType_0::SimdFloatDiv        46986      0.00%     81.40% # Class of committed instruction (Count)
system.cpu.commit.committedInstType_0::SimdFloatMisc            0      0.00%     81.40% # Class of committed instruction (Count)
system.cpu.commit.committedInstType_0::SimdFloatMult       986678      0.10%     81.50% # Class of committed instruction (Count)
system.cpu.commit.committedInstType_0::SimdFloatMultAcc            0      0.00%     81.50% # Class of committed instruction (Count)
system.cpu.commit.committedInstType_0::SimdFloatSqrt            0      0.00%     81.50% # Class of committed instruction (Count)
system.cpu.commit.committedInstType_0::SimdReduceAdd            0      0.00%     81.50% # Class of committed instruction (Count)
system.cpu.commit.committedInstType_0::SimdReduceAlu            0      0.00%     81.50% # Class of committed instruction (Count)
system.cpu.commit.committedInstType_0::SimdReduceCmp            0      0.00%     81.50% # Class of committed instruction (Count)
system.cpu.commit.committedInstType_0::SimdFloatReduceAdd            0      0.00%     81.50% # Class of committed instruction (Count)
system.cpu.commit.committedInstType_0::SimdFloatReduceCmp            0      0.00%     81.50% # Class of committed instruction (Count)
system.cpu.commit.committedInstType_0::SimdAes            0      0.00%     81.50% # Class of committed instruction (Count)
system.cpu.commit.committedInstType_0::SimdAesMix            0      0.00%     81.50% # Class of committed instruction (Count)
system.cpu.commit.committedInstType_0::SimdSha1Hash            0      0.00%     81.50% # Class of committed instruction (Count)
system.cpu.commit.committedInstType_0::SimdSha1Hash2            0      0.00%     81.50% # Class of committed instruction (Count)
system.cpu.commit.committedInstType_0::SimdSha256Hash            0      0.00%     81.50% # Class of committed instruction (Count)
system.cpu.commit.committedInstType_0::SimdSha256Hash2            0      0.00%     81.50% # Class of committed instruction (Count)
system.cpu.commit.committedInstType_0::SimdShaSigma2            0      0.00%     81.50% # Class of committed instruction (Count)
system.cpu.commit.committedInstType_0::SimdShaSigma3            0      0.00%     81.50% # Class of committed instruction (Count)
system.cpu.commit.committedInstType_0::SimdPredAlu            0      0.00%     81.50% # Class of committed instruction (Count)
system.cpu.commit.committedInstType_0::MemRead     98814690     10.34%     91.84% # Class of committed instruction (Count)
system.cpu.commit.committedInstType_0::MemWrite     72119361      7.55%     99.39% # Class of committed instruction (Count)
system.cpu.commit.committedInstType_0::FloatMemRead      3148296      0.33%     99.72% # Class of committed instruction (Count)
system.cpu.commit.committedInstType_0::FloatMemWrite      2678352      0.28%    100.00% # Class of committed instruction (Count)
system.cpu.commit.committedInstType_0::IprAccess            0      0.00%    100.00% # Class of committed instruction (Count)
system.cpu.commit.committedInstType_0::InstPrefetch            0      0.00%    100.00% # Class of committed instruction (Count)
system.cpu.commit.committedInstType_0::total    955552536                       # Class of committed instruction (Count)
system.cpu.commit.commitEligibleSamples      62956499                       # number cycles where commit BW limit reached (Cycle)
system.cpu.dcache.demandHits::cpu.data      156811930                       # number of demand (read+write) hits (Count)
system.cpu.dcache.demandHits::total         156811930                       # number of demand (read+write) hits (Count)
system.cpu.dcache.overallHits::cpu.data     156811930                       # number of overall hits (Count)
system.cpu.dcache.overallHits::total        156811930                       # number of overall hits (Count)
system.cpu.dcache.demandMisses::cpu.data         5105                       # number of demand (read+write) misses (Count)
system.cpu.dcache.demandMisses::total            5105                       # number of demand (read+write) misses (Count)
system.cpu.dcache.overallMisses::cpu.data         5105                       # number of overall misses (Count)
system.cpu.dcache.overallMisses::total           5105                       # number of overall misses (Count)
system.cpu.dcache.demandMissLatency::cpu.data    295656489                       # number of demand (read+write) miss ticks (Tick)
system.cpu.dcache.demandMissLatency::total    295656489                       # number of demand (read+write) miss ticks (Tick)
system.cpu.dcache.overallMissLatency::cpu.data    295656489                       # number of overall miss ticks (Tick)
system.cpu.dcache.overallMissLatency::total    295656489                       # number of overall miss ticks (Tick)
system.cpu.dcache.demandAccesses::cpu.data    156817035                       # number of demand (read+write) accesses (Count)
system.cpu.dcache.demandAccesses::total     156817035                       # number of demand (read+write) accesses (Count)
system.cpu.dcache.overallAccesses::cpu.data    156817035                       # number of overall (read+write) accesses (Count)
system.cpu.dcache.overallAccesses::total    156817035                       # number of overall (read+write) accesses (Count)
system.cpu.dcache.demandMissRate::cpu.data     0.000033                       # miss rate for demand accesses (Ratio)
system.cpu.dcache.demandMissRate::total      0.000033                       # miss rate for demand accesses (Ratio)
system.cpu.dcache.overallMissRate::cpu.data     0.000033                       # miss rate for overall accesses (Ratio)
system.cpu.dcache.overallMissRate::total     0.000033                       # miss rate for overall accesses (Ratio)
system.cpu.dcache.demandAvgMissLatency::cpu.data 57915.081097                       # average overall miss latency in ticks ((Tick/Count))
system.cpu.dcache.demandAvgMissLatency::total 57915.081097                       # average overall miss latency in ticks ((Tick/Count))
system.cpu.dcache.overallAvgMissLatency::cpu.data 57915.081097                       # average overall miss latency ((Tick/Count))
system.cpu.dcache.overallAvgMissLatency::total 57915.081097                       # average overall miss latency ((Tick/Count))
system.cpu.dcache.blockedCycles::no_mshrs        14119                       # number of cycles access was blocked (Cycle)
system.cpu.dcache.blockedCycles::no_targets            0                       # number of cycles access was blocked (Cycle)
system.cpu.dcache.blockedCauses::no_mshrs          277                       # number of times access was blocked (Count)
system.cpu.dcache.blockedCauses::no_targets            0                       # number of times access was blocked (Count)
system.cpu.dcache.avgBlocked::no_mshrs      50.971119                       # average number of cycles each access was blocked ((Cycle/Count))
system.cpu.dcache.avgBlocked::no_targets          nan                       # average number of cycles each access was blocked ((Cycle/Count))
system.cpu.dcache.writebacks::writebacks          465                       # number of writebacks (Count)
system.cpu.dcache.writebacks::total               465                       # number of writebacks (Count)
system.cpu.dcache.demandMshrHits::cpu.data         3118                       # number of demand (read+write) MSHR hits (Count)
system.cpu.dcache.demandMshrHits::total          3118                       # number of demand (read+write) MSHR hits (Count)
system.cpu.dcache.overallMshrHits::cpu.data         3118                       # number of overall MSHR hits (Count)
system.cpu.dcache.overallMshrHits::total         3118                       # number of overall MSHR hits (Count)
system.cpu.dcache.demandMshrMisses::cpu.data         1987                       # number of demand (read+write) MSHR misses (Count)
system.cpu.dcache.demandMshrMisses::total         1987                       # number of demand (read+write) MSHR misses (Count)
system.cpu.dcache.overallMshrMisses::cpu.data         1987                       # number of overall MSHR misses (Count)
system.cpu.dcache.overallMshrMisses::total         1987                       # number of overall MSHR misses (Count)
system.cpu.dcache.demandMshrMissLatency::cpu.data    126404989                       # number of demand (read+write) MSHR miss ticks (Tick)
system.cpu.dcache.demandMshrMissLatency::total    126404989                       # number of demand (read+write) MSHR miss ticks (Tick)
system.cpu.dcache.overallMshrMissLatency::cpu.data    126404989                       # number of overall MSHR miss ticks (Tick)
system.cpu.dcache.overallMshrMissLatency::total    126404989                       # number of overall MSHR miss ticks (Tick)
system.cpu.dcache.demandMshrMissRate::cpu.data     0.000013                       # mshr miss ratio for demand accesses (Ratio)
system.cpu.dcache.demandMshrMissRate::total     0.000013                       # mshr miss ratio for demand accesses (Ratio)
system.cpu.dcache.overallMshrMissRate::cpu.data     0.000013                       # mshr miss ratio for overall accesses (Ratio)
system.cpu.dcache.overallMshrMissRate::total     0.000013                       # mshr miss ratio for overall accesses (Ratio)
system.cpu.dcache.demandAvgMshrMissLatency::cpu.data 63615.998490                       # average overall mshr miss latency ((Tick/Count))
system.cpu.dcache.demandAvgMshrMissLatency::total 63615.998490                       # average overall mshr miss latency ((Tick/Count))
system.cpu.dcache.overallAvgMshrMissLatency::cpu.data 63615.998490                       # average overall mshr miss latency ((Tick/Count))
system.cpu.dcache.overallAvgMshrMissLatency::total 63615.998490                       # average overall mshr miss latency ((Tick/Count))
system.cpu.dcache.replacements                   1474                       # number of replacements (Count)
system.cpu.dcache.ReadReq.hits::cpu.data     81961946                       # number of ReadReq hits (Count)
system.cpu.dcache.ReadReq.hits::total        81961946                       # number of ReadReq hits (Count)
system.cpu.dcache.ReadReq.misses::cpu.data         4418                       # number of ReadReq misses (Count)
system.cpu.dcache.ReadReq.misses::total          4418                       # number of ReadReq misses (Count)
system.cpu.dcache.ReadReq.missLatency::cpu.data    253466500                       # number of ReadReq miss ticks (Tick)
system.cpu.dcache.ReadReq.missLatency::total    253466500                       # number of ReadReq miss ticks (Tick)
system.cpu.dcache.ReadReq.accesses::cpu.data     81966364                       # number of ReadReq accesses(hits+misses) (Count)
system.cpu.dcache.ReadReq.accesses::total     81966364                       # number of ReadReq accesses(hits+misses) (Count)
system.cpu.dcache.ReadReq.missRate::cpu.data     0.000054                       # miss rate for ReadReq accesses (Ratio)
system.cpu.dcache.ReadReq.missRate::total     0.000054                       # miss rate for ReadReq accesses (Ratio)
system.cpu.dcache.ReadReq.avgMissLatency::cpu.data 57371.321865                       # average ReadReq miss latency ((Tick/Count))
system.cpu.dcache.ReadReq.avgMissLatency::total 57371.321865                       # average ReadReq miss latency ((Tick/Count))
system.cpu.dcache.ReadReq.mshrHits::cpu.data         3111                       # number of ReadReq MSHR hits (Count)
system.cpu.dcache.ReadReq.mshrHits::total         3111                       # number of ReadReq MSHR hits (Count)
system.cpu.dcache.ReadReq.mshrMisses::cpu.data         1307                       # number of ReadReq MSHR misses (Count)
system.cpu.dcache.ReadReq.mshrMisses::total         1307                       # number of ReadReq MSHR misses (Count)
system.cpu.dcache.ReadReq.mshrMissLatency::cpu.data     85116000                       # number of ReadReq MSHR miss ticks (Tick)
system.cpu.dcache.ReadReq.mshrMissLatency::total     85116000                       # number of ReadReq MSHR miss ticks (Tick)
system.cpu.dcache.ReadReq.mshrMissRate::cpu.data     0.000016                       # mshr miss rate for ReadReq accesses (Ratio)
system.cpu.dcache.ReadReq.mshrMissRate::total     0.000016                       # mshr miss rate for ReadReq accesses (Ratio)
system.cpu.dcache.ReadReq.avgMshrMissLatency::cpu.data 65123.182862                       # average ReadReq mshr miss latency ((Tick/Count))
system.cpu.dcache.ReadReq.avgMshrMissLatency::total 65123.182862                       # average ReadReq mshr miss latency ((Tick/Count))
system.cpu.dcache.WriteReq.hits::cpu.data     74849984                       # number of WriteReq hits (Count)
system.cpu.dcache.WriteReq.hits::total       74849984                       # number of WriteReq hits (Count)
system.cpu.dcache.WriteReq.misses::cpu.data          687                       # number of WriteReq misses (Count)
system.cpu.dcache.WriteReq.misses::total          687                       # number of WriteReq misses (Count)
system.cpu.dcache.WriteReq.missLatency::cpu.data     42189989                       # number of WriteReq miss ticks (Tick)
system.cpu.dcache.WriteReq.missLatency::total     42189989                       # number of WriteReq miss ticks (Tick)
system.cpu.dcache.WriteReq.accesses::cpu.data     74850671                       # number of WriteReq accesses(hits+misses) (Count)
system.cpu.dcache.WriteReq.accesses::total     74850671                       # number of WriteReq accesses(hits+misses) (Count)
system.cpu.dcache.WriteReq.missRate::cpu.data     0.000009                       # miss rate for WriteReq accesses (Ratio)
system.cpu.dcache.WriteReq.missRate::total     0.000009                       # miss rate for WriteReq accesses (Ratio)
system.cpu.dcache.WriteReq.avgMissLatency::cpu.data 61411.919942                       # average WriteReq miss latency ((Tick/Count))
system.cpu.dcache.WriteReq.avgMissLatency::total 61411.919942                       # average WriteReq miss latency ((Tick/Count))
system.cpu.dcache.WriteReq.mshrHits::cpu.data            7                       # number of WriteReq MSHR hits (Count)
system.cpu.dcache.WriteReq.mshrHits::total            7                       # number of WriteReq MSHR hits (Count)
system.cpu.dcache.WriteReq.mshrMisses::cpu.data          680                       # number of WriteReq MSHR misses (Count)
system.cpu.dcache.WriteReq.mshrMisses::total          680                       # number of WriteReq MSHR misses (Count)
system.cpu.dcache.WriteReq.mshrMissLatency::cpu.data     41288989                       # number of WriteReq MSHR miss ticks (Tick)
system.cpu.dcache.WriteReq.mshrMissLatency::total     41288989                       # number of WriteReq MSHR miss ticks (Tick)
system.cpu.dcache.WriteReq.mshrMissRate::cpu.data     0.000009                       # mshr miss rate for WriteReq accesses (Ratio)
system.cpu.dcache.WriteReq.mshrMissRate::total     0.000009                       # mshr miss rate for WriteReq accesses (Ratio)
system.cpu.dcache.WriteReq.avgMshrMissLatency::cpu.data 60719.101471                       # average WriteReq mshr miss latency ((Tick/Count))
system.cpu.dcache.WriteReq.avgMshrMissLatency::total 60719.101471                       # average WriteReq mshr miss latency ((Tick/Count))
system.cpu.dcache.power_state.pwrStateResidencyTicks::UNDEFINED 142431195000                       # Cumulative time (in ticks) in various power states (Tick)
system.cpu.dcache.tags.tagsInUse           511.910799                       # Average ticks per tags in use ((Tick/Count))
system.cpu.dcache.tags.totalRefs            156813917                       # Total number of references to valid blocks. (Count)
system.cpu.dcache.tags.sampledRefs               1986                       # Sample count of references to valid blocks. (Count)
system.cpu.dcache.tags.avgRefs           78959.676234                       # Average number of references to valid blocks. ((Count/Count))
system.cpu.dcache.tags.warmupTick              148000                       # The tick when the warmup percentage was hit. (Tick)
system.cpu.dcache.tags.occupancies::cpu.data   511.910799                       # Average occupied blocks per tick, per requestor ((Count/Tick))
system.cpu.dcache.tags.avgOccs::cpu.data     0.999826                       # Average percentage of cache occupancy ((Ratio/Tick))
system.cpu.dcache.tags.avgOccs::total        0.999826                       # Average percentage of cache occupancy ((Ratio/Tick))
system.cpu.dcache.tags.occupanciesTaskId::1024          512                       # Occupied blocks per task id (Count)
system.cpu.dcache.tags.ageTaskId_1024::0           18                       # Occupied blocks per task id, per block age (Count)
system.cpu.dcache.tags.ageTaskId_1024::4          494                       # Occupied blocks per task id, per block age (Count)
system.cpu.dcache.tags.ratioOccsTaskId::1024            1                       # Ratio of occupied blocks and all blocks, per task id (Ratio)
system.cpu.dcache.tags.tagAccesses         1254538266                       # Number of tag accesses (Count)
system.cpu.dcache.tags.dataAccesses        1254538266                       # Number of data accesses (Count)
system.cpu.dcache.tags.power_state.pwrStateResidencyTicks::UNDEFINED 142431195000                       # Cumulative time (in ticks) in various power states (Tick)
system.cpu.decode.idleCycles                 74882303                       # Number of cycles decode is idle (Cycle)
system.cpu.decode.blockedCycles              47227692                       # Number of cycles decode is blocked (Cycle)
system.cpu.decode.runCycles                 142841487                       # Number of cycles decode is running (Cycle)
system.cpu.decode.unblockCycles              18492097                       # Number of cycles decode is unblocking (Cycle)
system.cpu.decode.squashCycles                1356876                       # Number of cycles decode is squashing (Cycle)
system.cpu.decode.branchResolved             54028723                       # Number of times decode resolved a branch (Count)
system.cpu.decode.branchMispred                 94631                       # Number of times decode detected a branch misprediction (Count)
system.cpu.decode.decodedInsts             1031831518                       # Number of instructions handled by decode (Count)
system.cpu.decode.squashedInsts                379045                       # Number of squashed instructions handled by decode (Count)
system.cpu.dtb_walker_cache.blockedCycles::no_mshrs            0                       # number of cycles access was blocked (Cycle)
system.cpu.dtb_walker_cache.blockedCycles::no_targets            0                       # number of cycles access was blocked (Cycle)
system.cpu.dtb_walker_cache.blockedCauses::no_mshrs            0                       # number of times access was blocked (Count)
system.cpu.dtb_walker_cache.blockedCauses::no_targets            0                       # number of times access was blocked (Count)
system.cpu.dtb_walker_cache.avgBlocked::no_mshrs          nan                       # average number of cycles each access was blocked ((Cycle/Count))
system.cpu.dtb_walker_cache.avgBlocked::no_targets          nan                       # average number of cycles each access was blocked ((Cycle/Count))
system.cpu.dtb_walker_cache.replacements            0                       # number of replacements (Count)
system.cpu.dtb_walker_cache.power_state.pwrStateResidencyTicks::UNDEFINED 142431195000                       # Cumulative time (in ticks) in various power states (Tick)
system.cpu.dtb_walker_cache.tags.tagsInUse            0                       # Average ticks per tags in use ((Tick/Count))
system.cpu.dtb_walker_cache.tags.totalRefs            0                       # Total number of references to valid blocks. (Count)
system.cpu.dtb_walker_cache.tags.sampledRefs            0                       # Sample count of references to valid blocks. (Count)
system.cpu.dtb_walker_cache.tags.avgRefs          nan                       # Average number of references to valid blocks. ((Count/Count))
system.cpu.dtb_walker_cache.tags.warmupTick            0                       # The tick when the warmup percentage was hit. (Tick)
system.cpu.dtb_walker_cache.tags.tagAccesses            0                       # Number of tag accesses (Count)
system.cpu.dtb_walker_cache.tags.dataAccesses            0                       # Number of data accesses (Count)
system.cpu.dtb_walker_cache.tags.power_state.pwrStateResidencyTicks::UNDEFINED 142431195000                       # Cumulative time (in ticks) in various power states (Tick)
system.cpu.fetch.icacheStallCycles           87266460                       # Number of cycles fetch is stalled on an Icache miss (Cycle)
system.cpu.fetch.insts                      560138325                       # Number of instructions fetch has processed (Count)
system.cpu.fetch.branches                   110957551                       # Number of branches that fetch encountered (Count)
system.cpu.fetch.predictedBranches           69143095                       # Number of branches that fetch has predicted taken (Count)
system.cpu.fetch.cycles                     196079729                       # Number of cycles fetch has run and was not squashing or blocked (Cycle)
system.cpu.fetch.squashCycles                 2902974                       # Number of cycles fetch has spent squashing (Cycle)
system.cpu.fetch.miscStallCycles                  314                       # Number of cycles fetch has spent waiting on interrupts, or bad addresses, or out of MSHRs (Cycle)
system.cpu.fetch.pendingTrapStallCycles          2465                       # Number of stall cycles due to pending traps (Cycle)
system.cpu.fetch.cacheLines                  86117353                       # Number of cache lines fetched (Count)
system.cpu.fetch.icacheSquashes                299483                       # Number of outstanding Icache misses that were squashed (Count)
system.cpu.fetch.nisnDist::samples          284800455                       # Number of instructions fetched each cycle (Total) (Count)
system.cpu.fetch.nisnDist::mean              3.657179                       # Number of instructions fetched each cycle (Total) (Count)
system.cpu.fetch.nisnDist::stdev             3.422705                       # Number of instructions fetched each cycle (Total) (Count)
system.cpu.fetch.nisnDist::underflows               0      0.00%      0.00% # Number of instructions fetched each cycle (Total) (Count)
system.cpu.fetch.nisnDist::0                109612428     38.49%     38.49% # Number of instructions fetched each cycle (Total) (Count)
system.cpu.fetch.nisnDist::1                  9324057      3.27%     41.76% # Number of instructions fetched each cycle (Total) (Count)
system.cpu.fetch.nisnDist::2                 11450617      4.02%     45.78% # Number of instructions fetched each cycle (Total) (Count)
system.cpu.fetch.nisnDist::3                 13164253      4.62%     50.40% # Number of instructions fetched each cycle (Total) (Count)
system.cpu.fetch.nisnDist::4                 16289728      5.72%     56.12% # Number of instructions fetched each cycle (Total) (Count)
system.cpu.fetch.nisnDist::5                 18356911      6.45%     62.57% # Number of instructions fetched each cycle (Total) (Count)
system.cpu.fetch.nisnDist::6                 14305157      5.02%     67.59% # Number of instructions fetched each cycle (Total) (Count)
system.cpu.fetch.nisnDist::7                 11304788      3.97%     71.56% # Number of instructions fetched each cycle (Total) (Count)
system.cpu.fetch.nisnDist::8                 80992516     28.44%    100.00% # Number of instructions fetched each cycle (Total) (Count)
system.cpu.fetch.nisnDist::overflows                0      0.00%    100.00% # Number of instructions fetched each cycle (Total) (Count)
system.cpu.fetch.nisnDist::min_value                0                       # Number of instructions fetched each cycle (Total) (Count)
system.cpu.fetch.nisnDist::max_value                8                       # Number of instructions fetched each cycle (Total) (Count)
system.cpu.fetch.nisnDist::total            284800455                       # Number of instructions fetched each cycle (Total) (Count)
system.cpu.fetch.branchRate                  0.389513                       # Number of branch fetches per cycle (Ratio)
system.cpu.fetch.rate                        1.966347                       # Number of inst fetches per cycle ((Count/Cycle))
system.cpu.icache.demandHits::cpu.inst       86115821                       # number of demand (read+write) hits (Count)
system.cpu.icache.demandHits::total          86115821                       # number of demand (read+write) hits (Count)
system.cpu.icache.overallHits::cpu.inst      86115821                       # number of overall hits (Count)
system.cpu.icache.overallHits::total         86115821                       # number of overall hits (Count)
system.cpu.icache.demandMisses::cpu.inst         1532                       # number of demand (read+write) misses (Count)
system.cpu.icache.demandMisses::total            1532                       # number of demand (read+write) misses (Count)
system.cpu.icache.overallMisses::cpu.inst         1532                       # number of overall misses (Count)
system.cpu.icache.overallMisses::total           1532                       # number of overall misses (Count)
system.cpu.icache.demandMissLatency::cpu.inst     87745500                       # number of demand (read+write) miss ticks (Tick)
system.cpu.icache.demandMissLatency::total     87745500                       # number of demand (read+write) miss ticks (Tick)
system.cpu.icache.overallMissLatency::cpu.inst     87745500                       # number of overall miss ticks (Tick)
system.cpu.icache.overallMissLatency::total     87745500                       # number of overall miss ticks (Tick)
system.cpu.icache.demandAccesses::cpu.inst     86117353                       # number of demand (read+write) accesses (Count)
system.cpu.icache.demandAccesses::total      86117353                       # number of demand (read+write) accesses (Count)
system.cpu.icache.overallAccesses::cpu.inst     86117353                       # number of overall (read+write) accesses (Count)
system.cpu.icache.overallAccesses::total     86117353                       # number of overall (read+write) accesses (Count)
system.cpu.icache.demandMissRate::cpu.inst     0.000018                       # miss rate for demand accesses (Ratio)
system.cpu.icache.demandMissRate::total      0.000018                       # miss rate for demand accesses (Ratio)
system.cpu.icache.overallMissRate::cpu.inst     0.000018                       # miss rate for overall accesses (Ratio)
system.cpu.icache.overallMissRate::total     0.000018                       # miss rate for overall accesses (Ratio)
system.cpu.icache.demandAvgMissLatency::cpu.inst 57275.130548                       # average overall miss latency in ticks ((Tick/Count))
system.cpu.icache.demandAvgMissLatency::total 57275.130548                       # average overall miss latency in ticks ((Tick/Count))
system.cpu.icache.overallAvgMissLatency::cpu.inst 57275.130548                       # average overall miss latency ((Tick/Count))
system.cpu.icache.overallAvgMissLatency::total 57275.130548                       # average overall miss latency ((Tick/Count))
system.cpu.icache.blockedCycles::no_mshrs           61                       # number of cycles access was blocked (Cycle)
system.cpu.icache.blockedCycles::no_targets            0                       # number of cycles access was blocked (Cycle)
system.cpu.icache.blockedCauses::no_mshrs            2                       # number of times access was blocked (Count)
system.cpu.icache.blockedCauses::no_targets            0                       # number of times access was blocked (Count)
system.cpu.icache.avgBlocked::no_mshrs      30.500000                       # average number of cycles each access was blocked ((Cycle/Count))
system.cpu.icache.avgBlocked::no_targets          nan                       # average number of cycles each access was blocked ((Cycle/Count))
system.cpu.icache.writebacks::writebacks          597                       # number of writebacks (Count)
system.cpu.icache.writebacks::total               597                       # number of writebacks (Count)
system.cpu.icache.demandMshrHits::cpu.inst          421                       # number of demand (read+write) MSHR hits (Count)
system.cpu.icache.demandMshrHits::total           421                       # number of demand (read+write) MSHR hits (Count)
system.cpu.icache.overallMshrHits::cpu.inst          421                       # number of overall MSHR hits (Count)
system.cpu.icache.overallMshrHits::total          421                       # number of overall MSHR hits (Count)
system.cpu.icache.demandMshrMisses::cpu.inst         1111                       # number of demand (read+write) MSHR misses (Count)
system.cpu.icache.demandMshrMisses::total         1111                       # number of demand (read+write) MSHR misses (Count)
system.cpu.icache.overallMshrMisses::cpu.inst         1111                       # number of overall MSHR misses (Count)
system.cpu.icache.overallMshrMisses::total         1111                       # number of overall MSHR misses (Count)
system.cpu.icache.demandMshrMissLatency::cpu.inst     67068500                       # number of demand (read+write) MSHR miss ticks (Tick)
system.cpu.icache.demandMshrMissLatency::total     67068500                       # number of demand (read+write) MSHR miss ticks (Tick)
system.cpu.icache.overallMshrMissLatency::cpu.inst     67068500                       # number of overall MSHR miss ticks (Tick)
system.cpu.icache.overallMshrMissLatency::total     67068500                       # number of overall MSHR miss ticks (Tick)
system.cpu.icache.demandMshrMissRate::cpu.inst     0.000013                       # mshr miss ratio for demand accesses (Ratio)
system.cpu.icache.demandMshrMissRate::total     0.000013                       # mshr miss ratio for demand accesses (Ratio)
system.cpu.icache.overallMshrMissRate::cpu.inst     0.000013                       # mshr miss ratio for overall accesses (Ratio)
system.cpu.icache.overallMshrMissRate::total     0.000013                       # mshr miss ratio for overall accesses (Ratio)
system.cpu.icache.demandAvgMshrMissLatency::cpu.inst 60367.686769                       # average overall mshr miss latency ((Tick/Count))
system.cpu.icache.demandAvgMshrMissLatency::total 60367.686769                       # average overall mshr miss latency ((Tick/Count))
system.cpu.icache.overallAvgMshrMissLatency::cpu.inst 60367.686769                       # average overall mshr miss latency ((Tick/Count))
system.cpu.icache.overallAvgMshrMissLatency::total 60367.686769                       # average overall mshr miss latency ((Tick/Count))
system.cpu.icache.replacements                    597                       # number of replacements (Count)
system.cpu.icache.ReadReq.hits::cpu.inst     86115821                       # number of ReadReq hits (Count)
system.cpu.icache.ReadReq.hits::total        86115821                       # number of ReadReq hits (Count)
system.cpu.icache.ReadReq.misses::cpu.inst         1532                       # number of ReadReq misses (Count)
system.cpu.icache.ReadReq.misses::total          1532                       # number of ReadReq misses (Count)
system.cpu.icache.ReadReq.missLatency::cpu.inst     87745500                       # number of ReadReq miss ticks (Tick)
system.cpu.icache.ReadReq.missLatency::total     87745500                       # number of ReadReq miss ticks (Tick)
system.cpu.icache.ReadReq.accesses::cpu.inst     86117353                       # number of ReadReq accesses(hits+misses) (Count)
system.cpu.icache.ReadReq.accesses::total     86117353                       # number of ReadReq accesses(hits+misses) (Count)
system.cpu.icache.ReadReq.missRate::cpu.inst     0.000018                       # miss rate for ReadReq accesses (Ratio)
system.cpu.icache.ReadReq.missRate::total     0.000018                       # miss rate for ReadReq accesses (Ratio)
system.cpu.icache.ReadReq.avgMissLatency::cpu.inst 57275.130548                       # average ReadReq miss latency ((Tick/Count))
system.cpu.icache.ReadReq.avgMissLatency::total 57275.130548                       # average ReadReq miss latency ((Tick/Count))
system.cpu.icache.ReadReq.mshrHits::cpu.inst          421                       # number of ReadReq MSHR hits (Count)
system.cpu.icache.ReadReq.mshrHits::total          421                       # number of ReadReq MSHR hits (Count)
system.cpu.icache.ReadReq.mshrMisses::cpu.inst         1111                       # number of ReadReq MSHR misses (Count)
system.cpu.icache.ReadReq.mshrMisses::total         1111                       # number of ReadReq MSHR misses (Count)
system.cpu.icache.ReadReq.mshrMissLatency::cpu.inst     67068500                       # number of ReadReq MSHR miss ticks (Tick)
system.cpu.icache.ReadReq.mshrMissLatency::total     67068500                       # number of ReadReq MSHR miss ticks (Tick)
system.cpu.icache.ReadReq.mshrMissRate::cpu.inst     0.000013                       # mshr miss rate for ReadReq accesses (Ratio)
system.cpu.icache.ReadReq.mshrMissRate::total     0.000013                       # mshr miss rate for ReadReq accesses (Ratio)
system.cpu.icache.ReadReq.avgMshrMissLatency::cpu.inst 60367.686769                       # average ReadReq mshr miss latency ((Tick/Count))
system.cpu.icache.ReadReq.avgMshrMissLatency::total 60367.686769                       # average ReadReq mshr miss latency ((Tick/Count))
system.cpu.icache.power_state.pwrStateResidencyTicks::UNDEFINED 142431195000                       # Cumulative time (in ticks) in various power states (Tick)
system.cpu.icache.tags.tagsInUse           511.818569                       # Average ticks per tags in use ((Tick/Count))
system.cpu.icache.tags.totalRefs             86116931                       # Total number of references to valid blocks. (Count)
system.cpu.icache.tags.sampledRefs               1110                       # Sample count of references to valid blocks. (Count)
system.cpu.icache.tags.avgRefs           77582.820721                       # Average number of references to valid blocks. ((Count/Count))
system.cpu.icache.tags.warmupTick               77000                       # The tick when the warmup percentage was hit. (Tick)
system.cpu.icache.tags.occupancies::cpu.inst   511.818569                       # Average occupied blocks per tick, per requestor ((Count/Tick))
system.cpu.icache.tags.avgOccs::cpu.inst     0.999646                       # Average percentage of cache occupancy ((Ratio/Tick))
system.cpu.icache.tags.avgOccs::total        0.999646                       # Average percentage of cache occupancy ((Ratio/Tick))
system.cpu.icache.tags.occupanciesTaskId::1024          512                       # Occupied blocks per task id (Count)
system.cpu.icache.tags.ageTaskId_1024::0           57                       # Occupied blocks per task id, per block age (Count)
system.cpu.icache.tags.ageTaskId_1024::4          455                       # Occupied blocks per task id, per block age (Count)
system.cpu.icache.tags.ratioOccsTaskId::1024            1                       # Ratio of occupied blocks and all blocks, per task id (Ratio)
system.cpu.icache.tags.tagAccesses          688939934                       # Number of tag accesses (Count)
system.cpu.icache.tags.dataAccesses         688939934                       # Number of data accesses (Count)
system.cpu.icache.tags.power_state.pwrStateResidencyTicks::UNDEFINED 142431195000                       # Cumulative time (in ticks) in various power states (Tick)
system.cpu.iew.idleCycles                           0                       # Number of cycles IEW is idle (Cycle)
system.cpu.iew.squashCycles                   1356876                       # Number of cycles IEW is squashing (Cycle)
system.cpu.iew.blockCycles                    6658468                       # Number of cycles IEW is blocking (Cycle)
system.cpu.iew.unblockCycles                   235161                       # Number of cycles IEW is unblocking (Cycle)
system.cpu.iew.dispatchedInsts             1014726126                       # Number of instructions dispatched to IQ (Count)
system.cpu.iew.dispSquashedInsts               198394                       # Number of squashed instructions skipped by dispatch (Count)
system.cpu.iew.dispLoadInsts                108274381                       # Number of dispatched load instructions (Count)
system.cpu.iew.dispStoreInsts                78704688                       # Number of dispatched store instructions (Count)
system.cpu.iew.dispNonSpecInsts                    67                       # Number of dispatched non-speculative instructions (Count)
system.cpu.iew.iqFullEvents                    231494                       # Number of times the IQ has become full, causing a stall (Count)
system.cpu.iew.lsqFullEvents                     3426                       # Number of times the LSQ has become full, causing a stall (Count)
system.cpu.iew.memOrderViolationEvents          11759                       # Number of memory order violations (Count)
system.cpu.iew.predictedTakenIncorrect         846548                       # Number of branches that were predicted taken incorrectly (Count)
system.cpu.iew.predictedNotTakenIncorrect       556435                       # Number of branches that were predicted not taken incorrectly (Count)
system.cpu.iew.branchMispredicts              1402983                       # Number of branch mispredicts detected at execute (Count)
system.cpu.iew.instsToCommit                991154103                       # Cumulative count of insts sent to commit (Count)
system.cpu.iew.writebackCount               990491684                       # Cumulative count of insts written-back (Count)
system.cpu.iew.producerInst                 724299317                       # Number of instructions producing a value (Count)
system.cpu.iew.consumerInst                1266048584                       # Number of instructions consuming a value (Count)
system.cpu.iew.wbRate                        3.477088                       # Insts written-back per cycle ((Count/Cycle))
system.cpu.iew.wbFanout                      0.572094                       # Average fanout of values written-back ((Count/Count))
system.cpu.interrupts.clk_domain.clock           8000                       # Clock period in ticks (Tick)
system.cpu.itb_walker_cache.blockedCycles::no_mshrs            0                       # number of cycles access was blocked (Cycle)
system.cpu.itb_walker_cache.blockedCycles::no_targets            0                       # number of cycles access was blocked (Cycle)
system.cpu.itb_walker_cache.blockedCauses::no_mshrs            0                       # number of times access was blocked (Count)
system.cpu.itb_walker_cache.blockedCauses::no_targets            0                       # number of times access was blocked (Count)
system.cpu.itb_walker_cache.avgBlocked::no_mshrs          nan                       # average number of cycles each access was blocked ((Cycle/Count))
system.cpu.itb_walker_cache.avgBlocked::no_targets          nan                       # average number of cycles each access was blocked ((Cycle/Count))
system.cpu.itb_walker_cache.replacements            0                       # number of replacements (Count)
system.cpu.itb_walker_cache.power_state.pwrStateResidencyTicks::UNDEFINED 142431195000                       # Cumulative time (in ticks) in various power states (Tick)
system.cpu.itb_walker_cache.tags.tagsInUse            0                       # Average ticks per tags in use ((Tick/Count))
system.cpu.itb_walker_cache.tags.totalRefs            0                       # Total number of references to valid blocks. (Count)
system.cpu.itb_walker_cache.tags.sampledRefs            0                       # Sample count of references to valid blocks. (Count)
system.cpu.itb_walker_cache.tags.avgRefs          nan                       # Average number of references to valid blocks. ((Count/Count))
system.cpu.itb_walker_cache.tags.warmupTick            0                       # The tick when the warmup percentage was hit. (Tick)
system.cpu.itb_walker_cache.tags.tagAccesses            0                       # Number of tag accesses (Count)
system.cpu.itb_walker_cache.tags.dataAccesses            0                       # Number of data accesses (Count)
system.cpu.itb_walker_cache.tags.power_state.pwrStateResidencyTicks::UNDEFINED 142431195000                       # Cumulative time (in ticks) in various power states (Tick)
system.cpu.lsq0.forwLoads                    24795697                       # Number of loads that had data forwarded from stores (Count)
system.cpu.lsq0.squashedLoads                 6311395                       # Number of loads squashed (Count)
system.cpu.lsq0.ignoredResponses                18061                       # Number of memory responses ignored because the instruction is squashed (Count)
system.cpu.lsq0.memOrderViolation               11759                       # Number of memory ordering violations (Count)
system.cpu.lsq0.squashedStores                3906975                       # Number of stores squashed (Count)
system.cpu.lsq0.rescheduledLoads               188060                       # Number of loads that were rescheduled (Count)
system.cpu.lsq0.blockedByCache                    261                       # Number of times an access to memory failed due to the cache being blocked (Count)
system.cpu.lsq0.loadToUse::samples          101962986                       # Distribution of cycle latency between the first time a load is issued and its completion (Unspecified)
system.cpu.lsq0.loadToUse::mean              2.983846                       # Distribution of cycle latency between the first time a load is issued and its completion (Unspecified)
system.cpu.lsq0.loadToUse::stdev             2.031775                       # Distribution of cycle latency between the first time a load is issued and its completion (Unspecified)
system.cpu.lsq0.loadToUse::0-9              101771300     99.81%     99.81% # Distribution of cycle latency between the first time a load is issued and its completion (Unspecified)
system.cpu.lsq0.loadToUse::10-19                  226      0.00%     99.81% # Distribution of cycle latency between the first time a load is issued and its completion (Unspecified)
system.cpu.lsq0.loadToUse::20-29                47218      0.05%     99.86% # Distribution of cycle latency between the first time a load is issued and its completion (Unspecified)
system.cpu.lsq0.loadToUse::30-39                  193      0.00%     99.86% # Distribution of cycle latency between the first time a load is issued and its completion (Unspecified)
system.cpu.lsq0.loadToUse::40-49               140591      0.14%    100.00% # Distribution of cycle latency between the first time a load is issued and its completion (Unspecified)
system.cpu.lsq0.loadToUse::50-59                   13      0.00%    100.00% # Distribution of cycle latency between the first time a load is issued and its completion (Unspecified)
system.cpu.lsq0.loadToUse::60-69                   17      0.00%    100.00% # Distribution of cycle latency between the first time a load is issued and its completion (Unspecified)
system.cpu.lsq0.loadToUse::70-79                   27      0.00%    100.00% # Distribution of cycle latency between the first time a load is issued and its completion (Unspecified)
system.cpu.lsq0.loadToUse::80-89                   41      0.00%    100.00% # Distribution of cycle latency between the first time a load is issued and its completion (Unspecified)
system.cpu.lsq0.loadToUse::90-99                   49      0.00%    100.00% # Distribution of cycle latency between the first time a load is issued and its completion (Unspecified)
[...]
system.mem_ctrls.dram.bwTotal::writebacks       208943                       # Total bandwidth to/from this memory ((Byte/Second))
system.mem_ctrls.dram.bwTotal::cpu.inst        498318                       # Total bandwidth to/from this memory ((Byte/Second))
system.mem_ctrls.dram.bwTotal::cpu.data        892389                       # Total bandwidth to/from this memory ((Byte/Second))
system.mem_ctrls.dram.bwTotal::total          1599650                       # Total bandwidth to/from this memory ((Byte/Second))
system.mem_ctrls.dram.readBursts                 3094                       # Number of DRAM read bursts (Count)
system.mem_ctrls.dram.writeBursts                1040                       # Number of DRAM write bursts (Count)
system.mem_ctrls.dram.perBankRdBursts::0          218                       # Per bank write bursts (Count)
system.mem_ctrls.dram.perBankRdBursts::1          239                       # Per bank write bursts (Count)
system.mem_ctrls.dram.perBankRdBursts::2          213                       # Per bank write bursts (Count)
system.mem_ctrls.dram.perBankRdBursts::3          306                       # Per bank write bursts (Count)
system.mem_ctrls.dram.perBankRdBursts::4          316                       # Per bank write bursts (Count)
system.mem_ctrls.dram.perBankRdBursts::5          281                       # Per bank write bursts (Count)
system.mem_ctrls.dram.perBankRdBursts::6          238                       # Per bank write bursts (Count)
system.mem_ctrls.dram.perBankRdBursts::7          162                       # Per bank write bursts (Count)
system.mem_ctrls.dram.perBankRdBursts::8          168                       # Per bank write bursts (Count)
system.mem_ctrls.dram.perBankRdBursts::9          141                       # Per bank write bursts (Count)
system.mem_ctrls.dram.perBankRdBursts::10          155                       # Per bank write bursts (Count)
system.mem_ctrls.dram.perBankRdBursts::11           85                       # Per bank write bursts (Count)
system.mem_ctrls.dram.perBankRdBursts::12          109                       # Per bank write bursts (Count)
system.mem_ctrls.dram.perBankRdBursts::13          193                       # Per bank write bursts (Count)
system.mem_ctrls.dram.perBankRdBursts::14          158                       # Per bank write bursts (Count)
system.mem_ctrls.dram.perBankRdBursts::15          112                       # Per bank write bursts (Count)
system.mem_ctrls.dram.perBankWrBursts::0           44                       # Per bank write bursts (Count)
system.mem_ctrls.dram.perBankWrBursts::1            2                       # Per bank write bursts (Count)
system.mem_ctrls.dram.perBankWrBursts::2           63                       # Per bank write bursts (Count)
system.mem_ctrls.dram.perBankWrBursts::3          155                       # Per bank write bursts (Count)
system.mem_ctrls.dram.perBankWrBursts::4           93                       # Per bank write bursts (Count)
system.mem_ctrls.dram.perBankWrBursts::5          110                       # Per bank write bursts (Count)
system.mem_ctrls.dram.perBankWrBursts::6          130                       # Per bank write bursts (Count)
system.mem_ctrls.dram.perBankWrBursts::7           15                       # Per bank write bursts (Count)
system.mem_ctrls.dram.perBankWrBursts::8           58                       # Per bank write bursts (Count)
system.mem_ctrls.dram.perBankWrBursts::9           59                       # Per bank write bursts (Count)
system.mem_ctrls.dram.perBankWrBursts::10           33                       # Per bank write bursts (Count)
system.mem_ctrls.dram.perBankWrBursts::11           24                       # Per bank write bursts (Count)
system.mem_ctrls.dram.perBankWrBursts::12           47                       # Per bank write bursts (Count)
system.mem_ctrls.dram.perBankWrBursts::13           79                       # Per bank write bursts (Count)
system.mem_ctrls.dram.perBankWrBursts::14           41                       # Per bank write bursts (Count)
system.mem_ctrls.dram.perBankWrBursts::15           87                       # Per bank write bursts (Count)
system.mem_ctrls.dram.totQLat                36130000                       # Total ticks spent queuing (Tick)
system.mem_ctrls.dram.totBusLat              15470000                       # Total ticks spent in databus transfers (Tick)
system.mem_ctrls.dram.totMemAccLat           94142500                       # Total ticks spent from burst creation until serviced by the DRAM (Tick)
system.mem_ctrls.dram.avgQLat                11677.44                       # Average queueing delay per DRAM burst ((Tick/Count))
system.mem_ctrls.dram.avgBusLat               5000.00                       # Average bus latency per DRAM burst ((Tick/Count))
system.mem_ctrls.dram.avgMemAccLat           30427.44                       # Average memory access latency per DRAM burst ((Tick/Count))
system.mem_ctrls.dram.readRowHits                2488                       # Number of row buffer hits during reads (Count)
system.mem_ctrls.dram.writeRowHits                834                       # Number of row buffer hits during writes (Count)
system.mem_ctrls.dram.readRowHitRate            80.41                       # Row buffer hit rate for reads (Ratio)
system.mem_ctrls.dram.writeRowHitRate           80.19                       # Row buffer hit rate for writes (Ratio)
system.mem_ctrls.dram.bytesPerActivate::samples          801                       # Bytes accessed per row activation (Byte)
system.mem_ctrls.dram.bytesPerActivate::mean   327.750312                       # Bytes accessed per row activation (Byte)
system.mem_ctrls.dram.bytesPerActivate::gmean   204.941828                       # Bytes accessed per row activation (Byte)
system.mem_ctrls.dram.bytesPerActivate::stdev   322.702615                       # Bytes accessed per row activation (Byte)
system.mem_ctrls.dram.bytesPerActivate::0-127          222     27.72%     27.72% # Bytes accessed per row activation (Byte)
system.mem_ctrls.dram.bytesPerActivate::128-255          242     30.21%     57.93% # Bytes accessed per row activation (Byte)
system.mem_ctrls.dram.bytesPerActivate::256-383           84     10.49%     68.41% # Bytes accessed per row activation (Byte)
system.mem_ctrls.dram.bytesPerActivate::384-511           57      7.12%     75.53% # Bytes accessed per row activation (Byte)
system.mem_ctrls.dram.bytesPerActivate::512-639           44      5.49%     81.02% # Bytes accessed per row activation (Byte)
system.mem_ctrls.dram.bytesPerActivate::640-767           28      3.50%     84.52% # Bytes accessed per row activation (Byte)
system.mem_ctrls.dram.bytesPerActivate::768-895           14      1.75%     86.27% # Bytes accessed per row activation (Byte)
system.mem_ctrls.dram.bytesPerActivate::896-1023           19      2.37%     88.64% # Bytes accessed per row activation (Byte)
system.mem_ctrls.dram.bytesPerActivate::1024-1151           91     11.36%    100.00% # Bytes accessed per row activation (Byte)
system.mem_ctrls.dram.bytesPerActivate::total          801                       # Bytes accessed per row activation (Byte)
system.mem_ctrls.dram.bytesRead                198016                       # Total bytes read (Byte)
system.mem_ctrls.dram.bytesWritten              66560                       # Total bytes written (Byte)
system.mem_ctrls.dram.avgRdBW                1.390257                       # Average DRAM read bandwidth in MiBytes/s ((Byte/Second))
system.mem_ctrls.dram.avgWrBW                0.467313                       # Average DRAM write bandwidth in MiBytes/s ((Byte/Second))
system.mem_ctrls.dram.peakBW                 12800.00                       # Theoretical peak bandwidth in MiByte/s ((Byte/Second))
system.mem_ctrls.dram.busUtil                    0.01                       # Data bus utilization in percentage (Ratio)
system.mem_ctrls.dram.busUtilRead                0.01                       # Data bus utilization in percentage for reads (Ratio)
system.mem_ctrls.dram.busUtilWrite               0.00                       # Data bus utilization in percentage for writes (Ratio)
system.mem_ctrls.dram.pageHitRate               80.36                       # Row buffer hit rate, read and write combined (Ratio)
system.mem_ctrls.dram.power_state.pwrStateResidencyTicks::UNDEFINED 142431195000                       # Cumulative time (in ticks) in various power states (Tick)
system.mem_ctrls.dram.rank0.actEnergy         3355800                       # Energy for activate commands per rank (pJ) (Joule)
system.mem_ctrls.dram.rank0.preEnergy         1760880                       # Energy for precharge commands per rank (pJ) (Joule)
system.mem_ctrls.dram.rank0.readEnergy       14087220                       # Energy for read commands per rank (pJ) (Joule)
system.mem_ctrls.dram.rank0.writeEnergy       3194640                       # Energy for write commands per rank (pJ) (Joule)
system.mem_ctrls.dram.rank0.refreshEnergy 11242994880.000002                       # Energy for refresh commands per rank (pJ) (Joule)
system.mem_ctrls.dram.rank0.actBackEnergy   2206948800                       # Energy for active background per rank (pJ) (Joule)
system.mem_ctrls.dram.rank0.preBackEnergy  52835095680                       # Energy for precharge background per rank (pJ) (Joule)
system.mem_ctrls.dram.rank0.actPowerDownEnergy            0                       # Energy for active power-down per rank (pJ) (Joule)
system.mem_ctrls.dram.rank0.prePowerDownEnergy            0                       # Energy for precharge power-down per rank (pJ) (Joule)
system.mem_ctrls.dram.rank0.selfRefreshEnergy            0                       # Energy for self refresh per rank (pJ) (Joule)
system.mem_ctrls.dram.rank0.totalEnergy   66307437900                       # Total energy per rank (pJ) (Joule)
system.mem_ctrls.dram.rank0.averagePower   465.540136                       # Core power per rank (mW) (Watt)
system.mem_ctrls.dram.rank0.totalIdleTime            0                       # Total Idle time Per DRAM Rank (Tick)
system.mem_ctrls.dram.rank0.pwrStateTime::IDLE 137339106250                       # Time in different power states (Tick)
system.mem_ctrls.dram.rank0.pwrStateTime::REF   4755920000                       # Time in different power states (Tick)
system.mem_ctrls.dram.rank0.pwrStateTime::SREF            0                       # Time in different power states (Tick)
system.mem_ctrls.dram.rank0.pwrStateTime::PRE_PDN            0                       # Time in different power states (Tick)
system.mem_ctrls.dram.rank0.pwrStateTime::ACT    336168750                       # Time in different power states (Tick)
system.mem_ctrls.dram.rank0.pwrStateTime::ACT_PDN            0                       # Time in different power states (Tick)
system.mem_ctrls.dram.rank1.actEnergy         2441880                       # Energy for activate commands per rank (pJ) (Joule)
system.mem_ctrls.dram.rank1.preEnergy         1278915                       # Energy for precharge commands per rank (pJ) (Joule)
system.mem_ctrls.dram.rank1.readEnergy        8003940                       # Energy for read commands per rank (pJ) (Joule)
system.mem_ctrls.dram.rank1.writeEnergy       2234160                       # Energy for write commands per rank (pJ) (Joule)
system.mem_ctrls.dram.rank1.refreshEnergy 11242994880.000002                       # Energy for refresh commands per rank (pJ) (Joule)
system.mem_ctrls.dram.rank1.actBackEnergy   2193399900                       # Energy for active background per rank (pJ) (Joule)
system.mem_ctrls.dram.rank1.preBackEnergy  52846505280                       # Energy for precharge background per rank (pJ) (Joule)
system.mem_ctrls.dram.rank1.actPowerDownEnergy            0                       # Energy for active power-down per rank (pJ) (Joule)
system.mem_ctrls.dram.rank1.prePowerDownEnergy            0                       # Energy for precharge power-down per rank (pJ) (Joule)
system.mem_ctrls.dram.rank1.selfRefreshEnergy            0                       # Energy for self refresh per rank (pJ) (Joule)
system.mem_ctrls.dram.rank1.totalEnergy   66296858955                       # Total energy per rank (pJ) (Joule)
system.mem_ctrls.dram.rank1.averagePower   465.465862                       # Core power per rank (mW) (Watt)
system.mem_ctrls.dram.rank1.totalIdleTime            0                       # Total Idle time Per DRAM Rank (Tick)
system.mem_ctrls.dram.rank1.pwrStateTime::IDLE 137368883250                       # Time in different power states (Tick)
system.mem_ctrls.dram.rank1.pwrStateTime::REF   4755920000                       # Time in different power states (Tick)
system.mem_ctrls.dram.rank1.pwrStateTime::SREF            0                       # Time in different power states (Tick)
system.mem_ctrls.dram.rank1.pwrStateTime::PRE_PDN            0                       # Time in different power states (Tick)
system.mem_ctrls.dram.rank1.pwrStateTime::ACT    306391750                       # Time in different power states (Tick)
system.mem_ctrls.dram.rank1.pwrStateTime::ACT_PDN            0                       # Time in different power states (Tick)
system.mem_ctrls.power_state.pwrStateResidencyTicks::UNDEFINED 142431195000                       # Cumulative time (in ticks) in various power states (Tick)
system.membus.transDist::ReadResp                2417                       # Transaction distribution (Count)
system.membus.transDist::WritebackDirty           465                       # Transaction distribution (Count)
system.membus.transDist::WritebackClean           597                       # Transaction distribution (Count)
system.membus.transDist::CleanEvict              1009                       # Transaction distribution (Count)
system.membus.transDist::UpgradeReq                 1                       # Transaction distribution (Count)
system.membus.transDist::ReadExReq                679                       # Transaction distribution (Count)
system.membus.transDist::ReadExResp               679                       # Transaction distribution (Count)
system.membus.transDist::ReadCleanReq            1111                       # Transaction distribution (Count)
system.membus.transDist::ReadSharedReq           1307                       # Transaction distribution (Count)
system.membus.pktCount_system.cpu.icache.mem_side_port::system.mem_ctrls.port         2817                       # Packet count per connected requestor and responder (Count)
system.membus.pktCount_system.cpu.icache.mem_side_port::total         2817                       # Packet count per connected requestor and responder (Count)
system.membus.pktCount_system.cpu.dcache.mem_side_port::system.mem_ctrls.port         5447                       # Packet count per connected requestor and responder (Count)
system.membus.pktCount_system.cpu.dcache.mem_side_port::total         5447                       # Packet count per connected requestor and responder (Count)
system.membus.pktCount::total                    8264                       # Packet count per connected requestor and responder (Count)
system.membus.pktSize_system.cpu.icache.mem_side_port::system.mem_ctrls.port       109184                       # Cumulative packet size per connected requestor and responder (Byte)
system.membus.pktSize_system.cpu.icache.mem_side_port::total       109184                       # Cumulative packet size per connected requestor and responder (Byte)
system.membus.pktSize_system.cpu.dcache.mem_side_port::system.mem_ctrls.port       156864                       # Cumulative packet size per connected requestor and responder (Byte)
system.membus.pktSize_system.cpu.dcache.mem_side_port::total       156864                       # Cumulative packet size per connected requestor and responder (Byte)
system.membus.pktSize::total                   266048                       # Cumulative packet size per connected requestor and responder (Byte)
system.membus.snoops                                1                       # Total snoops (Count)
system.membus.snoopTraffic                         64                       # Total snoop traffic (Byte)
system.membus.snoopFanout::samples               3098                       # Request fanout histogram (Count)
system.membus.snoopFanout::mean              0.004842                       # Request fanout histogram (Count)
system.membus.snoopFanout::stdev             0.069426                       # Request fanout histogram (Count)
system.membus.snoopFanout::underflows               0      0.00%      0.00% # Request fanout histogram (Count)
system.membus.snoopFanout::0                     3083     99.52%     99.52% # Request fanout histogram (Count)
system.membus.snoopFanout::1                       15      0.48%    100.00% # Request fanout histogram (Count)
system.membus.snoopFanout::2                        0      0.00%    100.00% # Request fanout histogram (Count)
system.membus.snoopFanout::3                        0      0.00%    100.00% # Request fanout histogram (Count)
system.membus.snoopFanout::4                        0      0.00%    100.00% # Request fanout histogram (Count)
system.membus.snoopFanout::overflows                0      0.00%    100.00% # Request fanout histogram (Count)
system.membus.snoopFanout::min_value                0                       # Request fanout histogram (Count)
system.membus.snoopFanout::max_value                1                       # Request fanout histogram (Count)
system.membus.snoopFanout::total                 3098                       # Request fanout histogram (Count)
system.membus.power_state.pwrStateResidencyTicks::UNDEFINED 142431195000                       # Cumulative time (in ticks) in various power states (Tick)
system.membus.reqLayer2.occupancy             9889500                       # Layer occupancy (ticks) (Tick)
system.membus.reqLayer2.utilization               0.0                       # Layer utilization (Ratio)
system.membus.respLayer1.occupancy            5887500                       # Layer occupancy (ticks) (Tick)
system.membus.respLayer1.utilization              0.0                       # Layer utilization (Ratio)
system.membus.respLayer2.occupancy           10515000                       # Layer occupancy (ticks) (Tick)
system.membus.respLayer2.utilization              0.0                       # Layer utilization (Ratio)
system.membus.snoop_filter.totRequests           5169                       # Total number of requests made to the snoop filter. (Count)
system.membus.snoop_filter.hitSingleRequests         2079                       # Number of requests hitting in the snoop filter with a single holder of the requested data. (Count)
system.membus.snoop_filter.hitMultiRequests            7                       # Number of requests hitting in the snoop filter with multiple (>1) holders of the requested data. (Count)
system.membus.snoop_filter.totSnoops                0                       # Total number of snoops made to the snoop filter. (Count)
system.membus.snoop_filter.hitSingleSnoops            0                       # Number of snoops hitting in the snoop filter with a single holder of the requested data. (Count)
system.membus.snoop_filter.hitMultiSnoops            0                       # Number of snoops hitting in the snoop filter with multiple (>1) holders of the requested data. (Count)
system.voltage_domain.voltage                       1                       # Voltage in Volts (Volt)
system.workload.inst.arm                            0                       # number of arm instructions executed (Count)
system.workload.inst.quiesce                        0                       # number of quiesce instructions executed (Count)

---------- End Simulation Statistics   ----------
