
---------- Begin Simulation Statistics ----------
simSeconds                                   0.000824                       # Number of seconds simulated (Second)
simTicks                                    823563500                       # Number of ticks simulated (Tick)
finalTick                                   823563500                       # Number of ticks from beginning of simulation (restored from checkpoints and never reset) (Tick)
simFreq                                  1000000000000                       # The number of ticks per simulated second ((Tick/Second))
hostSeconds                                     12.73                       # Real time elapsed on the host (Second)
hostTickRate                                 64680062                       # The number of ticks simulated per host second (ticks/s) ((Tick/Second))
hostMemory                                    8854628                       # Number of bytes of host memory used (Byte)
simInsts                                       857714                       # Number of instructions simulated (Count)
simOps                                        1643357                       # Number of ops (including micro ops) simulated (Count)
hostInstRate                                    67360                       # Simulator instruction rate (inst/s) ((Count/Second))
hostOpRate                                     129060                       # Simulator op (including micro ops) rate (op/s) ((Count/Second))
system.clk_domain.clock                          1000                       # Clock period in ticks (Tick)
system.cpu.numCycles                          1647128                       # Number of cpu cycles simulated (Cycle)
system.cpu.numWorkItemsStarted                      0                       # Number of work items this cpu started (Count)
system.cpu.numWorkItemsCompleted                    0                       # Number of work items this cpu completed (Count)
system.cpu.instsAdded                         2419092                       # Number of instructions added to the IQ (excludes non-spec) (Count)
system.cpu.nonSpecInstsAdded                     1383                       # Number of non-speculative instructions added to the IQ (Count)
system.cpu.instsIssued                        2180397                       # Number of instructions issued (Count)
system.cpu.squashedInstsIssued                   2063                       # Number of squashed instructions issued (Count)
system.cpu.squashedInstsExamined               776940                       # Number of squashed instructions iterated over during squash; mainly for profiling (Count)
system.cpu.squashedOperandsExamined           1503092                       # Number of squashed operands that are examined and possibly removed from graph (Count)
system.cpu.squashedNonSpecRemoved                 582                       # Number of squashed non-spec instructions that were removed (Count)
system.cpu.numIssuedDist::samples             1481483                       # Number of insts issued each cycle (Count)
system.cpu.numIssuedDist::mean               1.471766                       # Number of insts issued each cycle (Count)
system.cpu.numIssuedDist::stdev              2.137227                       # Number of insts issued each cycle (Count)
system.cpu.numIssuedDist::underflows                0      0.00%      0.00% # Number of insts issued each cycle (Count)
system.cpu.numIssuedDist::0                    852105     57.52%     57.52% # Number of insts issued each cycle (Count)
system.cpu.numIssuedDist::1                    128515      8.67%     66.19% # Number of insts issued each cycle (Count)
system.cpu.numIssuedDist::2                    113095      7.63%     73.83% # Number of insts issued each cycle (Count)
system.cpu.numIssuedDist::3                     91599      6.18%     80.01% # Number of insts issued each cycle (Count)
system.cpu.numIssuedDist::4                    109548      7.39%     87.40% # Number of insts issued each cycle (Count)
system.cpu.numIssuedDist::5                     75136      5.07%     92.47% # Number of insts issued each cycle (Count)
system.cpu.numIssuedDist::6                     63709      4.30%     96.78% # Number of insts issued each cycle (Count)
system.cpu.numIssuedDist::7                     27439      1.85%     98.63% # Number of insts issued each cycle (Count)
system.cpu.numIssuedDist::8                     20337      1.37%    100.00% # Number of insts issued each cycle (Count)
system.cpu.numIssuedDist::overflows                 0      0.00%    100.00% # Number of insts issued each cycle (Count)
system.cpu.numIssuedDist::min_value                 0                       # Number of insts issued each cycle (Count)
system.cpu.numIssuedDist::max_value                 8                       # Number of insts issued each cycle (Count)
system.cpu.numIssuedDist::total               1481483                       # Number of insts issued each cycle (Count)
system.cpu.statFuBusy::No_OpClass                   0      0.00%      0.00% # attempts to use FU when none available (Count)
system.cpu.statFuBusy::IntAlu                   16774     68.16%     68.16% # attempts to use FU when none available (Count)
system.cpu.statFuBusy::IntMult                      0      0.00%     68.16% # attempts to use FU when none available (Count)
system.cpu.statFuBusy::IntDiv                       0      0.00%     68.16% # attempts to use FU when none available (Count)
system.cpu.statFuBusy::FloatAdd                     0      0.00%     68.16% # attempts to use FU when none available (Count)
system.cpu.statFuBusy::FloatCmp                     0      0.00%     68.16% # attempts to use FU when none available (Count)
system.cpu.statFuBusy::FloatCvt                     0      0.00%     68.16% # attempts to use FU when none available (Count)
system.cpu.statFuBusy::FloatMult                    0      0.00%     68.16% # attempts to use FU when none available (Count)
system.cpu.statFuBusy::FloatMultAcc                 0      0.00%     68.16% # attempts to use FU when none available (Count)
system.cpu.statFuBusy::FloatDiv                     0      0.00%     68.16% # attempts to use FU when none available (Count)
system.cpu.statFuBusy::FloatMisc                    0      0.00%     68.16% # attempts to use FU when none available (Count)
system.cpu.statFuBusy::FloatSqrt                    0      0.00%     68.16% # attempts to use FU when none available (Count)
system.cpu.statFuBusy::SimdAdd                      0      0.00%     68.16% # attempts to use FU when none available (Count)
system.cpu.statFuBusy::SimdAddAcc                   0      0.00%     68.16% # attempts to use FU when none available (Count)
system.cpu.statFuBusy::SimdAlu                     60      0.24%     68.41% # attempts to use FU when none available (Count)
system.cpu.statFuBusy::SimdCmp                      0      0.00%     68.41% # attempts to use FU when none available (Count)
system.cpu.statFuBusy::SimdCvt                     14      0.06%     68.47% # attempts to use FU when none available (Count)
system.cpu.statFuBusy::SimdMisc                     1      0.00%     68.47% # attempts to use FU when none available (Count)
system.cpu.statFuBusy::SimdMult                     0      0.00%     68.47% # attempts to use FU when none available (Count)
system.cpu.statFuBusy::SimdMultAcc                  0      0.00%     68.47% # attempts to use FU when none available (Count)
system.cpu.statFuBusy::SimdShift                    0      0.00%     68.47% # attempts to use FU when none available (Count)
system.cpu.statFuBusy::SimdShiftAcc                 0      0.00%     68.47% # attempts to use FU when none available (Count)
system.cpu.statFuBusy::SimdDiv                      0      0.00%     68.47% # attempts to use FU when none available (Count)
system.cpu.statFuBusy::SimdSqrt                     0      0.00%     68.47% # attempts to use FU when none available (Count)
system.cpu.statFuBusy::SimdFloatAdd                 0      0.00%     68.47% # attempts to use FU when none available (Count)
system.cpu.statFuBusy::SimdFloatAlu                 0      0.00%     68.47% # attempts to use FU when none available (Count)
system.cpu.statFuBusy::SimdFloatCmp                 0      0.00%     68.47% # attempts to use FU when none available (Count)
system.cpu.statFuBusy::SimdFloatCvt                 0      0.00%     68.47% # attempts to use FU when none available (Count)
system.cpu.statFuBusy::SimdFloatDiv                 0      0.00%     68.47% # attempts to use FU when none available (Count)
system.cpu.statFuBusy::SimdFloatMisc                0      0.00%     68.47% # attempts to use FU when none available (Count)
system.cpu.statFuBusy::SimdFloatMult                0      0.00%     68.47% # attempts to use FU when none available (Count)
system.cpu.statFuBusy::SimdFloatMultAcc             0      0.00%     68.47% # attempts to use FU when none available (Count)
system.cpu.statFuBusy::SimdFloatSqrt                0      0.00%     68.47% # attempts to use FU when none available (Count)
system.cpu.statFuBusy::SimdReduceAdd                0      0.00%     68.47% # attempts to use FU when none available (Count)
system.cpu.statFuBusy::SimdReduceAlu                0      0.00%     68.47% # attempts to use FU when none available (Count)
system.cpu.statFuBusy::SimdReduceCmp                0      0.00%     68.47% # attempts to use FU when none available (Count)
system.cpu.statFuBusy::SimdFloatReduceAdd            0      0.00%     68.47% # attempts to use FU when none available (Count)
system.cpu.statFuBusy::SimdFloatReduceCmp            0      0.00%     68.47% # attempts to use FU when none available (Count)
system.cpu.statFuBusy::SimdAes                      0      0.00%     68.47% # attempts to use FU when none available (Count)
system.cpu.statFuBusy::SimdAesMix                   0      0.00%     68.47% # attempts to use FU when none available (Count)
system.cpu.statFuBusy::SimdSha1Hash                 0      0.00%     68.47% # attempts to use FU when none available (Count)
system.cpu.statFuBusy::SimdSha1Hash2                0      0.00%     68.47% # attempts to use FU when none available (Count)
system.cpu.statFuBusy::SimdSha256Hash               0      0.00%     68.47% # attempts to use FU when none available (Count)
system.cpu.statFuBusy::SimdSha256Hash2              0      0.00%     68.47% # attempts to use FU when none available (Count)
system.cpu.statFuBusy::SimdShaSigma2                0      0.00%     68.47% # attempts to use FU when none available (Count)
system.cpu.statFuBusy::SimdShaSigma3                0      0.00%     68.47% # attempts to use FU when none available (Count)
system.cpu.statFuBusy::SimdPredAlu                  0      0.00%     68.47% # attempts to use FU when none available (Count)
system.cpu.statFuBusy::MemRead                   4713     19.15%     87.62% # attempts to use FU when none available (Count)
system.cpu.statFuBusy::MemWrite                  2657     10.80%     98.42% # attempts to use FU when none available (Count)
system.cpu.statFuBusy::FloatMemRead               249      1.01%     99.43% # attempts to use FU when none available (Count)
system.cpu.statFuBusy::FloatMemWrite              140      0.57%    100.00% # attempts to use FU when none available (Count)
system.cpu.statFuBusy::IprAccess                    0      0.00%    100.00% # attempts to use FU when none available (Count)
system.cpu.statFuBusy::InstPrefetch                 0      0.00%    100.00% # attempts to use FU when none available (Count)
system.cpu.statIssuedInstType_0::No_OpClass         6788      0.31%      0.31% # Number of instructions issued per FU type, per thread (Count)
system.cpu.statIssuedInstType_0::IntAlu       1661205     76.19%     76.50% # Number of instructions issued per FU type, per thread (Count)
system.cpu.statIssuedInstType_0::IntMult          199      0.01%     76.51% # Number of instructions issued per FU type, per thread (Count)
system.cpu.statIssuedInstType_0::IntDiv         16805      0.77%     77.28% # Number of instructions issued per FU type, per thread (Count)
system.cpu.statIssuedInstType_0::FloatAdd          584      0.03%     77.31% # Number of instructions issued per FU type, per thread (Count)
system.cpu.statIssuedInstType_0::FloatCmp            0      0.00%     77.31% # Number of instructions issued per FU type, per thread (Count)
system.cpu.statIssuedInstType_0::FloatCvt         1260      0.06%     77.36% # Number of instructions issued per FU type, per thread (Count)
system.cpu.statIssuedInstType_0::FloatMult            0      0.00%     77.36% # Number of instructions issued per FU type, per thread (Count)
system.cpu.statIssuedInstType_0::FloatMultAcc            0      0.00%     77.36% # Number of instructions issued per FU type, per thread (Count)
system.cpu.statIssuedInstType_0::FloatDiv            0      0.00%     77.36% # Number of instructions issued per FU type, per thread (Count)
system.cpu.statIssuedInstType_0::FloatMisc            0      0.00%     77.36% # Number of instructions issued per FU type, per thread (Count)
system.cpu.statIssuedInstType_0::FloatSqrt            0      0.00%     77.36% # Number of instructions issued per FU type, per thread (Count)
system.cpu.statIssuedInstType_0::SimdAdd           34      0.00%     77.37% # Number of instructions issued per FU type, per thread (Count)
system.cpu.statIssuedInstType_0::SimdAddAcc            0      0.00%     77.37% # Number of instructions issued per FU type, per thread (Count)
system.cpu.statIssuedInstType_0::SimdAlu          704      0.03%     77.40% # Number of instructions issued per FU type, per thread (Count)
system.cpu.statIssuedInstType_0::SimdCmp            0      0.00%     77.40% # Number of instructions issued per FU type, per thread (Count)
system.cpu.statIssuedInstType_0::SimdCvt          531      0.02%     77.42% # Number of instructions issued per FU type, per thread (Count)
system.cpu.statIssuedInstType_0::SimdMisc          642      0.03%     77.45% # Number of instructions issued per FU type, per thread (Count)
system.cpu.statIssuedInstType_0::SimdMult            0      0.00%     77.45% # Number of instructions issued per FU type, per thread (Count)
system.cpu.statIssuedInstType_0::SimdMultAcc            0      0.00%     77.45% # Number of instructions issued per FU type, per thread (Count)
system.cpu.statIssuedInstType_0::SimdShift           51      0.00%     77.45% # Number of instructions issued per FU type, per thread (Count)
system.cpu.statIssuedInstType_0::SimdShiftAcc            0      0.00%     77.45% # Number of instructions issued per FU type, per thread (Count)
system.cpu.statIssuedInstType_0::SimdDiv            0      0.00%     77.45% # Number of instructions issued per FU type, per thread (Count)
system.cpu.statIssuedInstType_0::SimdSqrt            0      0.00%     77.45% # Number of instructions issued per FU type, per thread (Count)
system.cpu.statIssuedInstType_0::SimdFloatAdd            0      0.00%     77.45% # Number of instructions issued per FU type, per thread (Count)
system.cpu.statIssuedInstType_0::SimdFloatAlu            0      0.00%     77.45% # Number of instructions issued per FU type, per thread (Count)
system.cpu.statIssuedInstType_0::SimdFloatCmp            0      0.00%     77.45% # Number of instructions issued per FU type, per thread (Count)
system.cpu.statIssuedInstType_0::SimdFloatCvt            0      0.00%     77.45% # Number of instructions issued per FU type, per thread (Count)
system.cpu.statIssuedInstType_0::SimdFloatDiv            0      0.00%     77.45% # Number of instructions issued per FU type, per thread (Count)
system.cpu.statIssuedInstType_0::SimdFloatMisc            0      0.00%     77.45% # Number of instructions issued per FU type, per thread (Count)
system.cpu.statIssuedInstType_0::SimdFloatMult            0      0.00%     77.45% # Number of instructions issued per FU type, per thread (Count)
system.cpu.statIssuedInstType_0::SimdFloatMultAcc            0      0.00%     77.45% # Number of instructions issued per FU type, per thread (Count)
system.cpu.statIssuedInstType_0::SimdFloatSqrt            0      0.00%     77.45% # Number of instructions issued per FU type, per thread (Count)
system.cpu.statIssuedInstType_0::SimdReduceAdd            0      0.00%     77.45% # Number of instructions issued per FU type, per thread (Count)
system.cpu.statIssuedInstType_0::SimdReduceAlu            0      0.00%     77.45% # Number of instructions issued per FU type, per thread (Count)
system.cpu.statIssuedInstType_0::SimdReduceCmp            0      0.00%     77.45% # Number of instructions issued per FU type, per thread (Count)
system.cpu.statIssuedInstType_0::SimdFloatReduceAdd            0      0.00%     77.45% # Number of instructions issued per FU type, per thread (Count)
system.cpu.statIssuedInstType_0::SimdFloatReduceCmp            0      0.00%     77.45% # Number of instructions issued per FU type, per thread (Count)
system.cpu.statIssuedInstType_0::SimdAes            0      0.00%     77.45% # Number of instructions issued per FU type, per thread (Count)
system.cpu.statIssuedInstType_0::SimdAesMix            0      0.00%     77.45% # Number of instructions issued per FU type, per thread (Count)
system.cpu.statIssuedInstType_0::SimdSha1Hash            0      0.00%     77.45% # Number of instructions issued per FU type, per thread (Count)
system.cpu.statIssuedInstType_0::SimdSha1Hash2            0      0.00%     77.45% # Number of instructions issued per FU type, per thread (Count)
system.cpu.statIssuedInstType_0::SimdSha256Hash            0      0.00%     77.45% # Number of instructions issued per FU type, per thread (Count)
system.cpu.statIssuedInstType_0::SimdSha256Hash2            0      0.00%     77.45% # Number of instructions issued per FU type, per thread (Count)
system.cpu.statIssuedInstType_0::SimdShaSigma2            0      0.00%     77.45% # Number of instructions issued per FU type, per thread (Count)
system.cpu.statIssuedInstType_0::SimdShaSigma3            0      0.00%     77.45% # Number of instructions issued per FU type, per thread (Count)
system.cpu.statIssuedInstType_0::SimdPredAlu            0      0.00%     77.45% # Number of instructions issued per FU type, per thread (Count)
system.cpu.statIssuedInstType_0::MemRead       342728     15.72%     93.17% # Number of instructions issued per FU type, per thread (Count)
system.cpu.statIssuedInstType_0::MemWrite       139315      6.39%     99.56% # Number of instructions issued per FU type, per thread (Count)
system.cpu.statIssuedInstType_0::FloatMemRead         2729      0.13%     99.69% # Number of instructions issued per FU type, per thread (Count)
system.cpu.statIssuedInstType_0::FloatMemWrite         6822      0.31%    100.00% # Number of instructions issued per FU type, per thread (Count)
system.cpu.statIssuedInstType_0::IprAccess            0      0.00%    100.00% # Number of instructions issued per FU type, per thread (Count)
system.cpu.statIssuedInstType_0::InstPrefetch            0      0.00%    100.00% # Number of instructions issued per FU type, per thread (Count)
system.cpu.statIssuedInstType_0::total        2180397                       # Number of instructions issued per FU type, per thread (Count)
system.cpu.issueRate                         1.323757                       # Inst issue rate ((Count/Cycle))
system.cpu.fuBusy                               24608                       # FU busy when requested (Count)
system.cpu.fuBusyRate                        0.011286                       # FU busy rate (busy events/executed inst) ((Count/Count))
system.cpu.intInstQueueReads                  5841050                       # Number of integer instruction queue reads (Count)
system.cpu.intInstQueueWrites                 3180921                       # Number of integer instruction queue writes (Count)
system.cpu.intInstQueueWakeupAccesses         2111226                       # Number of integer instruction queue wakeup accesses (Count)
system.cpu.fpInstQueueReads                     27898                       # Number of floating instruction queue reads (Count)
system.cpu.fpInstQueueWrites                    16671                       # Number of floating instruction queue writes (Count)
system.cpu.fpInstQueueWakeupAccesses            13435                       # Number of floating instruction queue wakeup accesses (Count)
system.cpu.vecInstQueueReads                        0                       # Number of vector instruction queue reads (Count)
system.cpu.vecInstQueueWrites                       0                       # Number of vector instruction queue writes (Count)
system.cpu.vecInstQueueWakeupAccesses               0                       # Number of vector instruction queue wakeup accesses (Count)
system.cpu.intAluAccesses                     2184051                       # Number of integer alu accesses (Count)
system.cpu.fpAluAccesses                        14166                       # Number of floating point alu accesses (Count)
system.cpu.vecAluAccesses                           0                       # Number of vector alu accesses (Count)
system.cpu.numInsts                           2149638                       # Number of executed instructions (Count)
system.cpu.numLoadInsts                        338995                       # Number of load instructions executed (Count)
system.cpu.numSquashedInsts                     30759                       # Number of squashed instructions skipped in execute (Count)
system.cpu.numSwp                                   0                       # Number of swp insts executed (Count)
system.cpu.numNop                                   0                       # Number of nop insts executed (Count)
system.cpu.numRefs                             482004                       # Number of memory reference insts executed (Count)
system.cpu.numBranches                         243622                       # Number of branches executed (Count)
system.cpu.numStoreInsts                       143009                       # Number of stores executed (Count)
system.cpu.numRate                           1.305083                       # Inst execution rate ((Count/Cycle))
system.cpu.timesIdled                            1683                       # Number of times that the entire CPU went into an idle state and unscheduled itself (Count)
system.cpu.idleCycles                          165645                       # Total number of cycles that the CPU has spent unscheduled due to idling (Cycle)
system.cpu.committedInsts                      857714                       # Number of Instructions Simulated (Count)
system.cpu.committedOps                       1643357                       # Number of Ops (including micro ops) Simulated (Count)
system.cpu.cpi                               1.920370                       # CPI: Cycles Per Instruction ((Cycle/Count))
system.cpu.totalCpi                          1.920370                       # CPI: Total CPI of All Threads ((Cycle/Count))
system.cpu.ipc                               0.520733                       # IPC: Instructions Per Cycle ((Count/Cycle))
system.cpu.totalIpc                          0.520733                       # IPC: Total IPC of All Threads ((Count/Cycle))
system.cpu.intRegfileReads                    2602869                       # Number of integer regfile reads (Count)
system.cpu.intRegfileWrites                   1593407                       # Number of integer regfile writes (Count)
system.cpu.fpRegfileReads                       12851                       # Number of floating regfile reads (Count)
system.cpu.fpRegfileWrites                       5106                       # Number of floating regfile writes (Count)
system.cpu.ccRegfileReads                     1186012                       # number of cc regfile reads (Count)
system.cpu.ccRegfileWrites                     698875                       # number of cc regfile writes (Count)
system.cpu.miscRegfileReads                    987670                       # number of misc regfile reads (Count)
system.cpu.miscRegfileWrites                      531                       # number of misc regfile writes (Count)
system.cpu.MemDepUnit__0.insertedLoads         373367                       # Number of loads inserted to the mem dependence unit. (Count)
system.cpu.MemDepUnit__0.insertedStores        156618                       # Number of stores inserted to the mem dependence unit. (Count)
system.cpu.MemDepUnit__0.conflictingLoads        14462                       # Number of conflicting loads. (Count)
system.cpu.MemDepUnit__0.conflictingStores         9746                       # Number of conflicting stores. (Count)
system.cpu.MemDepUnit__1.insertedLoads              0                       # Number of loads inserted to the mem dependence unit. (Count)
system.cpu.MemDepUnit__1.insertedStores             0                       # Number of stores inserted to the mem dependence unit. (Count)
system.cpu.MemDepUnit__1.conflictingLoads            0                       # Number of conflicting loads. (Count)
system.cpu.MemDepUnit__1.conflictingStores            0                       # Number of conflicting stores. (Count)
system.cpu.MemDepUnit__2.insertedLoads              0                       # Number of loads inserted to the mem dependence unit. (Count)
system.cpu.MemDepUnit__2.insertedStores             0                       # Number of stores inserted to the mem dependence unit. (Count)
system.cpu.MemDepUnit__2.conflictingLoads            0                       # Number of conflicting loads. (Count)
system.cpu.MemDepUnit__2.conflictingStores            0                       # Number of conflicting stores. (Count)
system.cpu.MemDepUnit__3.insertedLoads              0                       # Number of loads inserted to the mem dependence unit. (Count)
system.cpu.MemDepUnit__3.insertedStores             0                       # Number of stores inserted to the mem dependence unit. (Count)
system.cpu.MemDepUnit__3.conflictingLoads            0                       # Number of conflicting loads. (Count)
system.cpu.MemDepUnit__3.conflictingStores            0                       # Number of conflicting stores. (Count)
system.cpu.branchPred.lookups                  346705                       # Number of BP lookups (Count)
system.cpu.branchPred.condPredicted            266007                       # Number of conditional branches predicted (Count)
system.cpu.branchPred.condIncorrect             16502                       # Number of conditional branches incorrect (Count)
system.cpu.branchPred.BTBLookups               179001                       # Number of BTB lookups (Count)
system.cpu.branchPred.BTBHits                  172782                       # Number of BTB hits (Count)
system.cpu.branchPred.BTBHitRatio            0.965257                       # BTB Hit Ratio (Ratio)
system.cpu.branchPred.RASUsed                   27291                       # Number of times the RAS was used to get a target. (Count)
system.cpu.branchPred.RASIncorrect                 22                       # Number of incorrect RAS predictions. (Count)
system.cpu.branchPred.indirectLookups           11638                       # Number of indirect predictor lookups. (Count)
system.cpu.branchPred.indirectHits               7440                       # Number of indirect target hits. (Count)
system.cpu.branchPred.indirectMisses             4198                       # Number of indirect misses. (Count)
system.cpu.branchPred.indirectMispredicted          841                       # Number of mispredicted indirect branches. (Count)
system.cpu.commit.commitSquashedInsts          771619                       # The number of squashed insts skipped by commit (Count)
system.cpu.commit.commitNonSpecStalls             801                       # The number of times commit has been forced to stall to communicate backwards (Count)
system.cpu.commit.branchMispredicts             15258                       # The number of times a branch was mispredicted (Count)
system.cpu.commit.numCommittedDist::samples      1371620                       # Number of insts commited each cycle (Count)
system.cpu.commit.numCommittedDist::mean     1.198114                       # Number of insts commited each cycle (Count)
system.cpu.commit.numCommittedDist::stdev     2.293979                       # Number of insts commited each cycle (Count)
system.cpu.commit.numCommittedDist::underflows            0      0.00%      0.00% # Number of insts commited each cycle (Count)
system.cpu.commit.numCommittedDist::0          914732     66.69%     66.69% # Number of insts commited each cycle (Count)
system.cpu.commit.numCommittedDist::1          148297     10.81%     77.50% # Number of insts commited each cycle (Count)
system.cpu.commit.numCommittedDist::2           60653      4.42%     81.92% # Number of insts commited each cycle (Count)
system.cpu.commit.numCommittedDist::3           79979      5.83%     87.75% # Number of insts commited each cycle (Count)
system.cpu.commit.numCommittedDist::4           28447      2.07%     89.83% # Number of insts commited each cycle (Count)
system.cpu.commit.numCommittedDist::5           18357      1.34%     91.17% # Number of insts commited each cycle (Count)
system.cpu.commit.numCommittedDist::6           11538      0.84%     92.01% # Number of insts commited each cycle (Count)
system.cpu.commit.numCommittedDist::7           17920      1.31%     93.31% # Number of insts commited each cycle (Count)
system.cpu.commit.numCommittedDist::8           91697      6.69%    100.00% # Number of insts commited each cycle (Count)
system.cpu.commit.numCommittedDist::overflows            0      0.00%    100.00% # Number of insts commited each cycle (Count)
system.cpu.commit.numCommittedDist::min_value            0                       # Number of insts commited each cycle (Count)
system.cpu.commit.numCommittedDist::max_value            8                       # Number of insts commited each cycle (Count)
system.cpu.commit.numCommittedDist::total      1371620                       # Number of insts commited each cycle (Count)
system.cpu.commit.instsCommitted               857714                       # Number of instructions committed (Count)
system.cpu.commit.opsCommitted                1643357                       # Number of ops (including micro ops) committed (Count)
system.cpu.commit.memRefs                      367650                       # Number of memory references committed (Count)
system.cpu.commit.loads                        256870                       # Number of loads committed (Count)
system.cpu.commit.amos                              0                       # Number of atomic instructions committed (Count)
system.cpu.commit.membars                         180                       # Number of memory barriers committed (Count)
system.cpu.commit.branches                     207836                       # Number of branches committed (Count)
system.cpu.commit.vectorInstructions                0                       # Number of committed Vector instructions. (Count)
system.cpu.commit.floating                      12171                       # Number of committed floating point instructions. (Count)
system.cpu.commit.integer                     1629707                       # Number of committed integer instructions. (Count)
system.cpu.commit.functionCalls                 19096                       # Number of function calls committed. (Count)
system.cpu.commit.committedInstType_0::No_OpClass         2836      0.17%      0.17% # Class of committed instruction (Count)
system.cpu.commit.committedInstType_0::IntAlu      1255045     76.37%     76.54% # Class of committed instruction (Count)
system.cpu.commit.committedInstType_0::IntMult          136      0.01%     76.55% # Class of committed instruction (Count)
system.cpu.commit.committedInstType_0::IntDiv        14784      0.90%     77.45% # Class of committed instruction (Count)
system.cpu.commit.committedInstType_0::FloatAdd          533      0.03%     77.48% # Class of committed instruction (Count)
system.cpu.commit.committedInstType_0::FloatCmp            0      0.00%     77.48% # Class of committed instruction (Count)
system.cpu.commit.committedInstType_0::FloatCvt          944      0.06%     77.54% # Class of committed instruction (Count)
system.cpu.commit.committedInstType_0::FloatMult            0      0.00%     77.54% # Class of committed instruction (Count)
system.cpu.commit.committedInstType_0::FloatMultAcc            0      0.00%     77.54% # Class of committed instruction (Count)
system.cpu.commit.committedInstType_0::FloatDiv            0      0.00%     77.54% # Class of committed instruction (Count)
system.cpu.commit.committedInstType_0::FloatMisc            0      0.00%     77.54% # Class of committed instruction (Count)
system.cpu.commit.committedInstType_0::FloatSqrt            0      0.00%     77.54% # Class of committed instruction (Count)
system.cpu.commit.committedInstType_0::SimdAdd           28      0.00%     77.54% # Class of committed instruction (Count)
system.cpu.commit.committedInstType_0::SimdAddAcc            0      0.00%     77.54% # Class of committed instruction (Count)
system.cpu.commit.committedInstType_0::SimdAlu          453      0.03%     77.57% # Class of committed instruction (Count)
system.cpu.commit.committedInstType_0::SimdCmp            0      0.00%     77.57% # Class of committed instruction (Count)
system.cpu.commit.committedInstType_0::SimdCvt          370      0.02%     77.59% # Class of committed instruction (Count)
system.cpu.commit.committedInstType_0::SimdMisc          550      0.03%     77.63% # Class of committed instruction (Count)
system.cpu.commit.committedInstType_0::SimdMult            0      0.00%     77.63% # Class of committed instruction (Count)
system.cpu.commit.committedInstType_0::SimdMultAcc            0      0.00%     77.63% # Class of committed instruction (Count)
system.cpu.commit.committedInstType_0::SimdShift           28      0.00%     77.63% # Class of committed instruction (Count)
system.cpu.commit.committedInstType_0::SimdShiftAcc            0      0.00%     77.63% # Class of committed instruction (Count)
system.cpu.commit.committedInstType_0::SimdDiv            0      0.00%     77.63% # Class of committed instruction (Count)
system.cpu.commit.committedInstType_0::SimdSqrt            0      0.00%     77.63% # Class of committed instruction (Count)
system.cpu.commit.committedInstType_0::SimdFloatAdd            0      0.00%     77.63% # Class of committed instruction (Count)
system.cpu.commit.committedInstType_0::SimdFloatAlu            0      0.00%     77.63% # Class of committed instruction (Count)
system.cpu.commit.committedInstType_0::SimdFloatCmp            0      0.00%     77.63% # Class of committed instruction (Count)
system.cpu.commit.committedInstType_0::SimdFloatCvt            0      0.00%     77.63% # Class of committed instruction (Count)
system.cpu.commit.committedInstType_0::SimdFloatDiv            0      0.00%     77.63% # Class of committed instruction (Count)
system.cpu.commit.committedInstType_0::SimdFloatMisc            0      0.00%     77.63% # Class of committed instruction (Count)
system.cpu.commit.committedInstType_0::SimdFloatMult            0      0.00%     77.63% # Class of committed instruction (Count)
system.cpu.commit.committedInstType_0::SimdFloatMultAcc            0      0.00%     77.63% # Class of committed instruction (Count)
system.cpu.commit.committedInstType_0::SimdFloatSqrt            0      0.00%     77.63% # Class of committed instruction (Count)
system.cpu.commit.committedInstType_0::SimdReduceAdd            0      0.00%     77.63% # Class of committed instruction (Count)
system.cpu.commit.committedInstType_0::SimdReduceAlu            0      0.00%     77.63% # Class of committed instruction (Count)
system.cpu.commit.committedInstType_0::SimdReduceCmp            0      0.00%     77.63% # Class of committed instruction (Count)
system.cpu.commit.committedInstType_0::SimdFloatReduceAdd            0      0.00%     77.63% # Class of committed instruction (Count)
system.cpu.commit.committedInstType_0::SimdFloatReduceCmp            0      0.00%     77.63% # Class of committed instruction (Count)
system.cpu.commit.committedInstType_0::SimdAes            0      0.00%     77.63% # Class of committed instruction (Count)
system.cpu.commit.committedInstType_0::SimdAesMix            0      0.00%     77.63% # Class of committed instruction (Count)
system.cpu.commit.committedInstType_0::SimdSha1Hash            0      0.00%     77.63% # Class of committed instruction (Count)
system.cpu.commit.committedInstType_0::SimdSha1Hash2            0      0.00%     77.63% # Class of committed instruction (Count)
system.cpu.commit.committedInstType_0::SimdSha256Hash            0      0.00%     77.63% # Class of committed instruction (Count)
system.cpu.commit.committedInstType_0::SimdSha256Hash2            0      0.00%     77.63% # Class of committed instruction (Count)
system.cpu.commit.committedInstType_0::SimdShaSigma2            0      0.00%     77.63% # Class of committed instruction (Count)
system.cpu.commit.committedInstType_0::SimdShaSigma3            0      0.00%     77.63% # Class of committed instruction (Count)
system.cpu.commit.committedInstType_0::SimdPredAlu            0      0.00%     77.63% # Class of committed instruction (Count)
system.cpu.commit.committedInstType_0::MemRead       254402     15.48%     93.11% # Class of committed instruction (Count)
system.cpu.commit.committedInstType_0::MemWrite       104184      6.34%     99.45% # Class of committed instruction (Count)
system.cpu.commit.committedInstType_0::FloatMemRead         2468      0.15%     99.60% # Class of committed instruction (Count)
system.cpu.commit.committedInstType_0::FloatMemWrite         6596      0.40%    100.00% # Class of committed instruction (Count)
system.cpu.commit.committedInstType_0::IprAccess            0      0.00%    100.00% # Class of committed instruction (Count)
system.cpu.commit.committedInstType_0::InstPrefetch            0      0.00%    100.00% # Class of committed instruction (Count)
system.cpu.commit.committedInstType_0::total      1643357                       # Class of committed instruction (Count)
system.cpu.commit.commitEligibleSamples         91697                       # number cycles where commit BW limit reached (Cycle)
system.cpu.dcache.demandHits::cpu.data         375878                       # number of demand (read+write) hits (Count)
system.cpu.dcache.demandHits::total            375878                       # number of demand (read+write) hits (Count)
system.cpu.dcache.overallHits::cpu.data        375878                       # number of overall hits (Count)
system.cpu.dcache.overallHits::total           375878                       # number of overall hits (Count)
system.cpu.dcache.demandMisses::cpu.data        26280                       # number of demand (read+write) misses (Count)
system.cpu.dcache.demandMisses::total           26280                       # number of demand (read+write) misses (Count)
system.cpu.dcache.overallMisses::cpu.data        26280                       # number of overall misses (Count)
system.cpu.dcache.overallMisses::total          26280                       # number of overall misses (Count)
system.cpu.dcache.demandMissLatency::cpu.data   1548202979                       # number of demand (read+write) miss ticks (Tick)
system.cpu.dcache.demandMissLatency::total   1548202979                       # number of demand (read+write) miss ticks (Tick)
system.cpu.dcache.overallMissLatency::cpu.data   1548202979                       # number of overall miss ticks (Tick)
system.cpu.dcache.overallMissLatency::total   1548202979                       # number of overall miss ticks (Tick)
system.cpu.dcache.demandAccesses::cpu.data       402158                       # number of demand (read+write) accesses (Count)
system.cpu.dcache.demandAccesses::total        402158                       # number of demand (read+write) accesses (Count)
system.cpu.dcache.overallAccesses::cpu.data       402158                       # number of overall (read+write) accesses (Count)
system.cpu.dcache.overallAccesses::total       402158                       # number of overall (read+write) accesses (Count)
system.cpu.dcache.demandMissRate::cpu.data     0.065347                       # miss rate for demand accesses (Ratio)
system.cpu.dcache.demandMissRate::total      0.065347                       # miss rate for demand accesses (Ratio)
system.cpu.dcache.overallMissRate::cpu.data     0.065347                       # miss rate for overall accesses (Ratio)
system.cpu.dcache.overallMissRate::total     0.065347                       # miss rate for overall accesses (Ratio)
system.cpu.dcache.demandAvgMissLatency::cpu.data 58911.833295                       # average overall miss latency in ticks ((Tick/Count))
system.cpu.dcache.demandAvgMissLatency::total 58911.833295                       # average overall miss latency in ticks ((Tick/Count))
system.cpu.dcache.overallAvgMissLatency::cpu.data 58911.833295                       # average overall miss latency ((Tick/Count))
system.cpu.dcache.overallAvgMissLatency::total 58911.833295                       # average overall miss latency ((Tick/Count))
system.cpu.dcache.blockedCycles::no_mshrs        28077                       # number of cycles access was blocked (Cycle)
system.cpu.dcache.blockedCycles::no_targets         1142                       # number of cycles access was blocked (Cycle)
system.cpu.dcache.blockedCauses::no_mshrs          533                       # number of times access was blocked (Count)
system.cpu.dcache.blockedCauses::no_targets            8                       # number of times access was blocked (Count)
system.cpu.dcache.avgBlocked::no_mshrs      52.677298                       # average number of cycles each access was blocked ((Cycle/Count))
system.cpu.dcache.avgBlocked::no_targets   142.750000                       # average number of cycles each access was blocked ((Cycle/Count))
system.cpu.dcache.writebacks::writebacks         1958                       # number of writebacks (Count)
system.cpu.dcache.writebacks::total              1958                       # number of writebacks (Count)
system.cpu.dcache.demandMshrHits::cpu.data        16334                       # number of demand (read+write) MSHR hits (Count)
system.cpu.dcache.demandMshrHits::total         16334                       # number of demand (read+write) MSHR hits (Count)
system.cpu.dcache.overallMshrHits::cpu.data        16334                       # number of overall MSHR hits (Count)
system.cpu.dcache.overallMshrHits::total        16334                       # number of overall MSHR hits (Count)
system.cpu.dcache.demandMshrMisses::cpu.data         9946                       # number of demand (read+write) MSHR misses (Count)
system.cpu.dcache.demandMshrMisses::total         9946                       # number of demand (read+write) MSHR misses (Count)
system.cpu.dcache.overallMshrMisses::cpu.data         9946                       # number of overall MSHR misses (Count)
system.cpu.dcache.overallMshrMisses::total         9946                       # number of overall MSHR misses (Count)
system.cpu.dcache.demandMshrMissLatency::cpu.data    651420479                       # number of demand (read+write) MSHR miss ticks (Tick)
system.cpu.dcache.demandMshrMissLatency::total    651420479                       # number of demand (read+write) MSHR miss ticks (Tick)
system.cpu.dcache.overallMshrMissLatency::cpu.data    651420479                       # number of overall MSHR miss ticks (Tick)
system.cpu.dcache.overallMshrMissLatency::total    651420479                       # number of overall MSHR miss ticks (Tick)
system.cpu.dcache.demandMshrMissRate::cpu.data     0.024732                       # mshr miss ratio for demand accesses (Ratio)
system.cpu.dcache.demandMshrMissRate::total     0.024732                       # mshr miss ratio for demand accesses (Ratio)
system.cpu.dcache.overallMshrMissRate::cpu.data     0.024732                       # mshr miss ratio for overall accesses (Ratio)
system.cpu.dcache.overallMshrMissRate::total     0.024732                       # mshr miss ratio for overall accesses (Ratio)
system.cpu.dcache.demandAvgMshrMissLatency::cpu.data 65495.724814                       # average overall mshr miss latency ((Tick/Count))
system.cpu.dcache.demandAvgMshrMissLatency::total 65495.724814                       # average overall mshr miss latency ((Tick/Count))
system.cpu.dcache.overallAvgMshrMissLatency::cpu.data 65495.724814                       # average overall mshr miss latency ((Tick/Count))
system.cpu.dcache.overallAvgMshrMissLatency::total 65495.724814                       # average overall mshr miss latency ((Tick/Count))
system.cpu.dcache.replacements                   9432                       # number of replacements (Count)
system.cpu.dcache.LockedRMWReadReq.hits::cpu.data           90                       # number of LockedRMWReadReq hits (Count)
system.cpu.dcache.LockedRMWReadReq.hits::total           90                       # number of LockedRMWReadReq hits (Count)
system.cpu.dcache.LockedRMWReadReq.accesses::cpu.data           90                       # number of LockedRMWReadReq accesses(hits+misses) (Count)
system.cpu.dcache.LockedRMWReadReq.accesses::total           90                       # number of LockedRMWReadReq accesses(hits+misses) (Count)
system.cpu.dcache.LockedRMWReadReq.mshrMissLatency::cpu.data       270500                       # number of LockedRMWReadReq MSHR miss ticks (Tick)
system.cpu.dcache.LockedRMWReadReq.mshrMissLatency::total       270500                       # number of LockedRMWReadReq MSHR miss ticks (Tick)
system.cpu.dcache.LockedRMWReadReq.avgMshrMissLatency::cpu.data          inf                       # average LockedRMWReadReq mshr miss latency ((Tick/Count))
system.cpu.dcache.LockedRMWReadReq.avgMshrMissLatency::total          inf                       # average LockedRMWReadReq mshr miss latency ((Tick/Count))
system.cpu.dcache.LockedRMWWriteReq.hits::cpu.data           90                       # number of LockedRMWWriteReq hits (Count)
system.cpu.dcache.LockedRMWWriteReq.hits::total           90                       # number of LockedRMWWriteReq hits (Count)
system.cpu.dcache.LockedRMWWriteReq.accesses::cpu.data           90                       # number of LockedRMWWriteReq accesses(hits+misses) (Count)
system.cpu.dcache.LockedRMWWriteReq.accesses::total           90                       # number of LockedRMWWriteReq accesses(hits+misses) (Count)
system.cpu.dcache.ReadReq.hits::cpu.data       266752                       # number of ReadReq hits (Count)
system.cpu.dcache.ReadReq.hits::total          266752                       # number of ReadReq hits (Count)
system.cpu.dcache.ReadReq.misses::cpu.data        24587                       # number of ReadReq misses (Count)
system.cpu.dcache.ReadReq.misses::total         24587                       # number of ReadReq misses (Count)
system.cpu.dcache.ReadReq.missLatency::cpu.data   1446182500                       # number of ReadReq miss ticks (Tick)
system.cpu.dcache.ReadReq.missLatency::total   1446182500                       # number of ReadReq miss ticks (Tick)
system.cpu.dcache.ReadReq.accesses::cpu.data       291339                       # number of ReadReq accesses(hits+misses) (Count)
system.cpu.dcache.ReadReq.accesses::total       291339                       # number of ReadReq accesses(hits+misses) (Count)
system.cpu.dcache.ReadReq.missRate::cpu.data     0.084393                       # miss rate for ReadReq accesses (Ratio)
system.cpu.dcache.ReadReq.missRate::total     0.084393                       # miss rate for ReadReq accesses (Ratio)
system.cpu.dcache.ReadReq.avgMissLatency::cpu.data 58818.989710                       # average ReadReq miss latency ((Tick/Count))
system.cpu.dcache.ReadReq.avgMissLatency::total 58818.989710                       # average ReadReq miss latency ((Tick/Count))
system.cpu.dcache.ReadReq.mshrHits::cpu.data        16308                       # number of ReadReq MSHR hits (Count)
system.cpu.dcache.ReadReq.mshrHits::total        16308                       # number of ReadReq MSHR hits (Count)
system.cpu.dcache.ReadReq.mshrMisses::cpu.data         8279                       # number of ReadReq MSHR misses (Count)
system.cpu.dcache.ReadReq.mshrMisses::total         8279                       # number of ReadReq MSHR misses (Count)
system.cpu.dcache.ReadReq.mshrMissLatency::cpu.data    551731500                       # number of ReadReq MSHR miss ticks (Tick)
system.cpu.dcache.ReadReq.mshrMissLatency::total    551731500                       # number of ReadReq MSHR miss ticks (Tick)
system.cpu.dcache.ReadReq.mshrMissRate::cpu.data     0.028417                       # mshr miss rate for ReadReq accesses (Ratio)
system.cpu.dcache.ReadReq.mshrMissRate::total     0.028417                       # mshr miss rate for ReadReq accesses (Ratio)
system.cpu.dcache.ReadReq.avgMshrMissLatency::cpu.data 66642.287716                       # average ReadReq mshr miss latency ((Tick/Count))
system.cpu.dcache.ReadReq.avgMshrMissLatency::total 66642.287716                       # average ReadReq mshr miss latency ((Tick/Count))
system.cpu.dcache.WriteReq.hits::cpu.data       109126                       # number of WriteReq hits (Count)
system.cpu.dcache.WriteReq.hits::total         109126                       # number of WriteReq hits (Count)
system.cpu.dcache.WriteReq.misses::cpu.data         1693                       # number of WriteReq misses (Count)
system.cpu.dcache.WriteReq.misses::total         1693                       # number of WriteReq misses (Count)
system.cpu.dcache.WriteReq.missLatency::cpu.data    102020479                       # number of WriteReq miss ticks (Tick)
system.cpu.dcache.WriteReq.missLatency::total    102020479                       # number of WriteReq miss ticks (Tick)
system.cpu.dcache.WriteReq.accesses::cpu.data       110819                       # number of WriteReq accesses(hits+misses) (Count)
system.cpu.dcache.WriteReq.accesses::total       110819                       # number of WriteReq accesses(hits+misses) (Count)
system.cpu.dcache.WriteReq.missRate::cpu.data     0.015277                       # miss rate for WriteReq accesses (Ratio)
system.cpu.dcache.WriteReq.missRate::total     0.015277                       # miss rate for WriteReq accesses (Ratio)
system.cpu.dcache.WriteReq.avgMissLatency::cpu.data 60260.176610                       # average WriteReq miss latency ((Tick/Count))
system.cpu.dcache.WriteReq.avgMissLatency::total 60260.176610                       # average WriteReq miss latency ((Tick/Count))
system.cpu.dcache.WriteReq.mshrHits::cpu.data           26                       # number of WriteReq MSHR hits (Count)
system.cpu.dcache.WriteReq.mshrHits::total           26                       # number of WriteReq MSHR hits (Count)
system.cpu.dcache.WriteReq.mshrMisses::cpu.data         1667                       # number of WriteReq MSHR misses (Count)
system.cpu.dcache.WriteReq.mshrMisses::total         1667                       # number of WriteReq MSHR misses (Count)
system.cpu.dcache.WriteReq.mshrMissLatency::cpu.data     99688979                       # number of WriteReq MSHR miss ticks (Tick)
system.cpu.dcache.WriteReq.mshrMissLatency::total     99688979                       # number of WriteReq MSHR miss ticks (Tick)
system.cpu.dcache.WriteReq.mshrMissRate::cpu.data     0.015043                       # mshr miss rate for WriteReq accesses (Ratio)
system.cpu.dcache.WriteReq.mshrMissRate::total     0.015043                       # mshr miss rate for WriteReq accesses (Ratio)
system.cpu.dcache.WriteReq.avgMshrMissLatency::cpu.data 59801.427115                       # average WriteReq mshr miss latency ((Tick/Count))
system.cpu.dcache.WriteReq.avgMshrMissLatency::total 59801.427115                       # average WriteReq mshr miss latency ((Tick/Count))
system.cpu.dcache.power_state.pwrStateResidencyTicks::UNDEFINED    823563500                       # Cumulative time (in ticks) in various power states (Tick)
system.cpu.dcache.tags.tagsInUse           494.909747                       # Average ticks per tags in use ((Tick/Count))
system.cpu.dcache.tags.totalRefs               386004                       # Total number of references to valid blocks. (Count)
system.cpu.dcache.tags.sampledRefs               9944                       # Sample count of references to valid blocks. (Count)
system.cpu.dcache.tags.avgRefs              38.817780                       # Average number of references to valid blocks. ((Count/Count))
system.cpu.dcache.tags.warmupTick              148000                       # The tick when the warmup percentage was hit. (Tick)
system.cpu.dcache.tags.occupancies::cpu.data   494.909747                       # Average occupied blocks per tick, per requestor ((Count/Tick))
system.cpu.dcache.tags.avgOccs::cpu.data     0.966621                       # Average percentage of cache occupancy ((Ratio/Tick))
system.cpu.dcache.tags.avgOccs::total        0.966621                       # Average percentage of cache occupancy ((Ratio/Tick))
system.cpu.dcache.tags.occupanciesTaskId::1024          512                       # Occupied blocks per task id (Count)
system.cpu.dcache.tags.ageTaskId_1024::0          126                       # Occupied blocks per task id, per block age (Count)
system.cpu.dcache.tags.ageTaskId_1024::1          278                       # Occupied blocks per task id, per block age (Count)
system.cpu.dcache.tags.ageTaskId_1024::2          108                       # Occupied blocks per task id, per block age (Count)
system.cpu.dcache.tags.ratioOccsTaskId::1024            1                       # Ratio of occupied blocks and all blocks, per task id (Ratio)
system.cpu.dcache.tags.tagAccesses            3228648                       # Number of tag accesses (Count)
system.cpu.dcache.tags.dataAccesses           3228648                       # Number of data accesses (Count)
system.cpu.dcache.tags.power_state.pwrStateResidencyTicks::UNDEFINED    823563500                       # Cumulative time (in ticks) in various power states (Tick)
system.cpu.decode.idleCycles                   260539                       # Number of cycles decode is idle (Cycle)
system.cpu.decode.blockedCycles                800607                       # Number of cycles decode is blocked (Cycle)
system.cpu.decode.runCycles                    360472                       # Number of cycles decode is running (Cycle)
system.cpu.decode.unblockCycles                 44074                       # Number of cycles decode is unblocking (Cycle)
system.cpu.decode.squashCycles                  15791                       # Number of cycles decode is squashing (Cycle)
system.cpu.decode.branchResolved               162261                       # Number of times decode resolved a branch (Count)
system.cpu.decode.branchMispred                  2146                       # Number of times decode detected a branch misprediction (Count)
system.cpu.decode.decodedInsts                2582779                       # Number of instructions handled by decode (Count)
system.cpu.decode.squashedInsts                  8982                       # Number of squashed instructions handled by decode (Count)
system.cpu.dtb_walker_cache.blockedCycles::no_mshrs            0                       # number of cycles access was blocked (Cycle)
system.cpu.dtb_walker_cache.blockedCycles::no_targets            0                       # number of cycles access was blocked (Cycle)
system.cpu.dtb_walker_cache.blockedCauses::no_mshrs            0                       # number of times access was blocked (Count)
system.cpu.dtb_walker_cache.blockedCauses::no_targets            0                       # number of times access was blocked (Count)
system.cpu.dtb_walker_cache.avgBlocked::no_mshrs          nan                       # average number of cycles each access was blocked ((Cycle/Count))
system.cpu.dtb_walker_cache.avgBlocked::no_targets          nan                       # average number of cycles each access was blocked ((Cycle/Count))
system.cpu.dtb_walker_cache.replacements            0                       # number of replacements (Count)
system.cpu.dtb_walker_cache.power_state.pwrStateResidencyTicks::UNDEFINED    823563500                       # Cumulative time (in ticks) in various power states (Tick)
system.cpu.dtb_walker_cache.tags.tagsInUse            0                       # Average ticks per tags in use ((Tick/Count))
system.cpu.dtb_walker_cache.tags.totalRefs            0                       # Total number of references to valid blocks. (Count)
system.cpu.dtb_walker_cache.tags.sampledRefs            0                       # Sample count of references to valid blocks. (Count)
system.cpu.dtb_walker_cache.tags.avgRefs          nan                       # Average number of references to valid blocks. ((Count/Count))
system.cpu.dtb_walker_cache.tags.warmupTick            0                       # The tick when the warmup percentage was hit. (Tick)
system.cpu.dtb_walker_cache.tags.tagAccesses            0                       # Number of tag accesses (Count)
system.cpu.dtb_walker_cache.tags.dataAccesses            0                       # Number of data accesses (Count)
system.cpu.dtb_walker_cache.tags.power_state.pwrStateResidencyTicks::UNDEFINED    823563500                       # Cumulative time (in ticks) in various power states (Tick)
system.cpu.fetch.icacheStallCycles             291851                       # Number of cycles fetch is stalled on an Icache miss (Cycle)
system.cpu.fetch.insts                        1464921                       # Number of instructions fetch has processed (Count)
system.cpu.fetch.branches                      346705                       # Number of branches that fetch encountered (Count)
system.cpu.fetch.predictedBranches             207513                       # Number of branches that fetch has predicted taken (Count)
system.cpu.fetch.cycles                       1164343                       # Number of cycles fetch has run and was not squashing or blocked (Cycle)
system.cpu.fetch.squashCycles                   35784                       # Number of cycles fetch has spent squashing (Cycle)
system.cpu.fetch.miscStallCycles                  947                       # Number of cycles fetch has spent waiting on interrupts, or bad addresses, or out of MSHRs (Cycle)
system.cpu.fetch.pendingTrapStallCycles          6434                       # Number of stall cycles due to pending traps (Cycle)
system.cpu.fetch.icacheWaitRetryStallCycles           16                       # Number of stall cycles due to full MSHR (Cycle)
system.cpu.fetch.cacheLines                    214766                       # Number of cache lines fetched (Count)
system.cpu.fetch.icacheSquashes                  5118                       # Number of outstanding Icache misses that were squashed (Count)
system.cpu.fetch.nisnDist::samples            1481483                       # Number of instructions fetched each cycle (Total) (Count)
system.cpu.fetch.nisnDist::mean              1.874187                       # Number of instructions fetched each cycle (Total) (Count)
system.cpu.fetch.nisnDist::stdev             3.067250                       # Number of instructions fetched each cycle (Total) (Count)
system.cpu.fetch.nisnDist::underflows               0      0.00%      0.00% # Number of instructions fetched each cycle (Total) (Count)
system.cpu.fetch.nisnDist::0                  1008407     68.07%     68.07% # Number of instructions fetched each cycle (Total) (Count)
system.cpu.fetch.nisnDist::1                    29383      1.98%     70.05% # Number of instructions fetched each cycle (Total) (Count)
system.cpu.fetch.nisnDist::2                    43353      2.93%     72.98% # Number of instructions fetched each cycle (Total) (Count)
system.cpu.fetch.nisnDist::3                    30994      2.09%     75.07% # Number of instructions fetched each cycle (Total) (Count)
system.cpu.fetch.nisnDist::4                    45859      3.10%     78.16% # Number of instructions fetched each cycle (Total) (Count)
system.cpu.fetch.nisnDist::5                    34389      2.32%     80.49% # Number of instructions fetched each cycle (Total) (Count)
system.cpu.fetch.nisnDist::6                    37027      2.50%     82.99% # Number of instructions fetched each cycle (Total) (Count)
system.cpu.fetch.nisnDist::7                    26606      1.80%     84.78% # Number of instructions fetched each cycle (Total) (Count)
system.cpu.fetch.nisnDist::8                   225465     15.22%    100.00% # Number of instructions fetched each cycle (Total) (Count)
system.cpu.fetch.nisnDist::overflows                0      0.00%    100.00% # Number of instructions fetched each cycle (Total) (Count)
system.cpu.fetch.nisnDist::min_value                0                       # Number of instructions fetched each cycle (Total) (Count)
system.cpu.fetch.nisnDist::max_value                8                       # Number of instructions fetched each cycle (Total) (Count)
system.cpu.fetch.nisnDist::total              1481483                       # Number of instructions fetched each cycle (Total) (Count)
system.cpu.fetch.branchRate                  0.210491                       # Number of branch fetches per cycle (Ratio)
system.cpu.fetch.rate                        0.889379                       # Number of inst fetches per cycle ((Count/Cycle))
system.cpu.icache.demandHits::cpu.inst         211489                       # number of demand (read+write) hits (Count)
system.cpu.icache.demandHits::total            211489                       # number of demand (read+write) hits (Count)
system.cpu.icache.overallHits::cpu.inst        211489                       # number of overall hits (Count)
system.cpu.icache.overallHits::total           211489                       # number of overall hits (Count)
system.cpu.icache.demandMisses::cpu.inst         3276                       # number of demand (read+write) misses (Count)
system.cpu.icache.demandMisses::total            3276                       # number of demand (read+write) misses (Count)
system.cpu.icache.overallMisses::cpu.inst         3276                       # number of overall misses (Count)
system.cpu.icache.overallMisses::total           3276                       # number of overall misses (Count)
system.cpu.icache.demandMissLatency::cpu.inst    206119500                       # number of demand (read+write) miss ticks (Tick)
system.cpu.icache.demandMissLatency::total    206119500                       # number of demand (read+write) miss ticks (Tick)
system.cpu.icache.overallMissLatency::cpu.inst    206119500                       # number of overall miss ticks (Tick)
system.cpu.icache.overallMissLatency::total    206119500                       # number of overall miss ticks (Tick)
system.cpu.icache.demandAccesses::cpu.inst       214765                       # number of demand (read+write) accesses (Count)
system.cpu.icache.demandAccesses::total        214765                       # number of demand (read+write) accesses (Count)
system.cpu.icache.overallAccesses::cpu.inst       214765                       # number of overall (read+write) accesses (Count)
system.cpu.icache.overallAccesses::total       214765                       # number of overall (read+write) accesses (Count)
system.cpu.icache.demandMissRate::cpu.inst     0.015254                       # miss rate for demand accesses (Ratio)
system.cpu.icache.demandMissRate::total      0.015254                       # miss rate for demand accesses (Ratio)
system.cpu.icache.overallMissRate::cpu.inst     0.015254                       # miss rate for overall accesses (Ratio)
system.cpu.icache.overallMissRate::total     0.015254                       # miss rate for overall accesses (Ratio)
system.cpu.icache.demandAvgMissLatency::cpu.inst 62918.040293                       # average overall miss latency in ticks ((Tick/Count))
system.cpu.icache.demandAvgMissLatency::total 62918.040293                       # average overall miss latency in ticks ((Tick/Count))
system.cpu.icache.overallAvgMissLatency::cpu.inst 62918.040293                       # average overall miss latency ((Tick/Count))
system.cpu.icache.overallAvgMissLatency::total 62918.040293                       # average overall miss latency ((Tick/Count))
system.cpu.icache.blockedCycles::no_mshrs          484                       # number of cycles access was blocked (Cycle)
system.cpu.icache.blockedCycles::no_targets            0                       # number of cycles access was blocked (Cycle)
system.cpu.icache.blockedCauses::no_mshrs            6                       # number of times access was blocked (Count)
system.cpu.icache.blockedCauses::no_targets            0                       # number of times access was blocked (Count)
system.cpu.icache.avgBlocked::no_mshrs      80.666667                       # average number of cycles each access was blocked ((Cycle/Count))
system.cpu.icache.avgBlocked::no_targets          nan                       # average number of cycles each access was blocked ((Cycle/Count))
system.cpu.icache.writebacks::writebacks         2023                       # number of writebacks (Count)
system.cpu.icache.writebacks::total              2023                       # number of writebacks (Count)
system.cpu.icache.demandMshrHits::cpu.inst          738                       # number of demand (read+write) MSHR hits (Count)
system.cpu.icache.demandMshrHits::total           738                       # number of demand (read+write) MSHR hits (Count)
system.cpu.icache.overallMshrHits::cpu.inst          738                       # number of overall MSHR hits (Count)
system.cpu.icache.overallMshrHits::total          738                       # number of overall MSHR hits (Count)
system.cpu.icache.demandMshrMisses::cpu.inst         2538                       # number of demand (read+write) MSHR misses (Count)
system.cpu.icache.demandMshrMisses::total         2538                       # number of demand (read+write) MSHR misses (Count)
system.cpu.icache.overallMshrMisses::cpu.inst         2538                       # number of overall MSHR misses (Count)
system.cpu.icache.overallMshrMisses::total         2538                       # number of overall MSHR misses (Count)
system.cpu.icache.demandMshrMissLatency::cpu.inst    166841000                       # number of demand (read+write) MSHR miss ticks (Tick)
system.cpu.icache.demandMshrMissLatency::total    166841000                       # number of demand (read+write) MSHR miss ticks (Tick)
system.cpu.icache.overallMshrMissLatency::cpu.inst    166841000                       # number of overall MSHR miss ticks (Tick)
system.cpu.icache.overallMshrMissLatency::total    166841000                       # number of overall MSHR miss ticks (Tick)
system.cpu.icache.demandMshrMissRate::cpu.inst     0.011818                       # mshr miss ratio for demand accesses (Ratio)
system.cpu.icache.demandMshrMissRate::total     0.011818                       # mshr miss ratio for demand accesses (Ratio)
system.cpu.icache.overallMshrMissRate::cpu.inst     0.011818                       # mshr miss ratio for overall accesses (Ratio)
system.cpu.icache.overallMshrMissRate::total     0.011818                       # mshr miss ratio for overall accesses (Ratio)
system.cpu.icache.demandAvgMshrMissLatency::cpu.inst 65737.194641                       # average overall mshr miss latency ((Tick/Count))
system.cpu.icache.demandAvgMshrMissLatency::total 65737.194641                       # average overall mshr miss latency ((Tick/Count))
system.cpu.icache.overallAvgMshrMissLatency::cpu.inst 65737.194641                       # average overall mshr miss latency ((Tick/Count))
system.cpu.icache.overallAvgMshrMissLatency::total 65737.194641                       # average overall mshr miss latency ((Tick/Count))
system.cpu.icache.replacements                   2023                       # number of replacements (Count)
system.cpu.icache.ReadReq.hits::cpu.inst       211489                       # number of ReadReq hits (Count)
system.cpu.icache.ReadReq.hits::total          211489                       # number of ReadReq hits (Count)
system.cpu.icache.ReadReq.misses::cpu.inst         3276                       # number of ReadReq misses (Count)
system.cpu.icache.ReadReq.misses::total          3276                       # number of ReadReq misses (Count)
system.cpu.icache.ReadReq.missLatency::cpu.inst    206119500                       # number of ReadReq miss ticks (Tick)
system.cpu.icache.ReadReq.missLatency::total    206119500                       # number of ReadReq miss ticks (Tick)
system.cpu.icache.ReadReq.accesses::cpu.inst       214765                       # number of ReadReq accesses(hits+misses) (Count)
system.cpu.icache.ReadReq.accesses::total       214765                       # number of ReadReq accesses(hits+misses) (Count)
system.cpu.icache.ReadReq.missRate::cpu.inst     0.015254                       # miss rate for ReadReq accesses (Ratio)
system.cpu.icache.ReadReq.missRate::total     0.015254                       # miss rate for ReadReq accesses (Ratio)
system.cpu.icache.ReadReq.avgMissLatency::cpu.inst 62918.040293                       # average ReadReq miss latency ((Tick/Count))
system.cpu.icache.ReadReq.avgMissLatency::total 62918.040293                       # average ReadReq miss latency ((Tick/Count))
system.cpu.icache.ReadReq.mshrHits::cpu.inst          738                       # number of ReadReq MSHR hits (Count)
system.cpu.icache.ReadReq.mshrHits::total          738                       # number of ReadReq MSHR hits (Count)
system.cpu.icache.ReadReq.mshrMisses::cpu.inst         2538                       # number of ReadReq MSHR misses (Count)
system.cpu.icache.ReadReq.mshrMisses::total         2538                       # number of ReadReq MSHR misses (Count)
system.cpu.icache.ReadReq.mshrMissLatency::cpu.inst    166841000                       # number of ReadReq MSHR miss ticks (Tick)
system.cpu.icache.ReadReq.mshrMissLatency::total    166841000                       # number of ReadReq MSHR miss ticks (Tick)
system.cpu.icache.ReadReq.mshrMissRate::cpu.inst     0.011818                       # mshr miss rate for ReadReq accesses (Ratio)
system.cpu.icache.ReadReq.mshrMissRate::total     0.011818                       # mshr miss rate for ReadReq accesses (Ratio)
system.cpu.icache.ReadReq.avgMshrMissLatency::cpu.inst 65737.194641                       # average ReadReq mshr miss latency ((Tick/Count))
system.cpu.icache.ReadReq.avgMshrMissLatency::total 65737.194641                       # average ReadReq mshr miss latency ((Tick/Count))
system.cpu.icache.power_state.pwrStateResidencyTicks::UNDEFINED    823563500                       # Cumulative time (in ticks) in various power states (Tick)
system.cpu.icache.tags.tagsInUse           493.941889                       # Average ticks per tags in use ((Tick/Count))
system.cpu.icache.tags.totalRefs               214026                       # Total number of references to valid blocks. (Count)
system.cpu.icache.tags.sampledRefs               2537                       # Sample count of references to valid blocks. (Count)
system.cpu.icache.tags.avgRefs              84.361845                       # Average number of references to valid blocks. ((Count/Count))
system.cpu.icache.tags.warmupTick               77000                       # The tick when the warmup percentage was hit. (Tick)
system.cpu.icache.tags.occupancies::cpu.inst   493.941889                       # Average occupied blocks per tick, per requestor ((Count/Tick))
system.cpu.icache.tags.avgOccs::cpu.inst     0.964730                       # Average percentage of cache occupancy ((Ratio/Tick))
system.cpu.icache.tags.avgOccs::total        0.964730                       # Average percentage of cache occupancy ((Ratio/Tick))
system.cpu.icache.tags.occupanciesTaskId::1024          512                       # Occupied blocks per task id (Count)
system.cpu.icache.tags.ageTaskId_1024::0           73                       # Occupied blocks per task id, per block age (Count)
system.cpu.icache.tags.ageTaskId_1024::1          348                       # Occupied blocks per task id, per block age (Count)
system.cpu.icache.tags.ageTaskId_1024::2           91                       # Occupied blocks per task id, per block age (Count)
system.cpu.icache.tags.ratioOccsTaskId::1024            1                       # Ratio of occupied blocks and all blocks, per task id (Ratio)
system.cpu.icache.tags.tagAccesses            1720657                       # Number of tag accesses (Count)
system.cpu.icache.tags.dataAccesses           1720657                       # Number of data accesses (Count)
system.cpu.icache.tags.power_state.pwrStateResidencyTicks::UNDEFINED    823563500                       # Cumulative time (in ticks) in various power states (Tick)
system.cpu.iew.idleCycles                           0                       # Number of cycles IEW is idle (Cycle)
system.cpu.iew.squashCycles                     15791                       # Number of cycles IEW is squashing (Cycle)
system.cpu.iew.blockCycles                     310457                       # Number of cycles IEW is blocking (Cycle)
system.cpu.iew.unblockCycles                    63191                       # Number of cycles IEW is unblocking (Cycle)
system.cpu.iew.dispatchedInsts                2420475                       # Number of instructions dispatched to IQ (Count)
system.cpu.iew.dispSquashedInsts                  729                       # Number of squashed instructions skipped by dispatch (Count)
system.cpu.iew.dispLoadInsts                   373367                       # Number of dispatched load instructions (Count)
system.cpu.iew.dispStoreInsts                  156618                       # Number of dispatched store instructions (Count)
system.cpu.iew.dispNonSpecInsts                   823                       # Number of dispatched non-speculative instructions (Count)
system.cpu.iew.iqFullEvents                      2065                       # Number of times the IQ has become full, causing a stall (Count)
system.cpu.iew.lsqFullEvents                    59739                       # Number of times the LSQ has become full, causing a stall (Count)
system.cpu.iew.memOrderViolationEvents            211                       # Number of memory order violations (Count)
system.cpu.iew.predictedTakenIncorrect           6280                       # Number of branches that were predicted taken incorrectly (Count)
system.cpu.iew.predictedNotTakenIncorrect        10565                       # Number of branches that were predicted not taken incorrectly (Count)
system.cpu.iew.branchMispredicts                16845                       # Number of branch mispredicts detected at execute (Count)
system.cpu.iew.instsToCommit                  2133513                       # Cumulative count of insts sent to commit (Count)
system.cpu.iew.writebackCount                 2124661                       # Cumulative count of insts written-back (Count)
system.cpu.iew.producerInst                   1575873                       # Number of instructions producing a value (Count)
system.cpu.iew.consumerInst                   2658753                       # Number of instructions consuming a value (Count)
system.cpu.iew.wbRate                        1.289919                       # Insts written-back per cycle ((Count/Cycle))
system.cpu.iew.wbFanout                      0.592711                       # Average fanout of values written-back ((Count/Count))
system.cpu.interrupts.clk_domain.clock           8000                       # Clock period in ticks (Tick)
system.cpu.itb_walker_cache.blockedCycles::no_mshrs            0                       # number of cycles access was blocked (Cycle)
system.cpu.itb_walker_cache.blockedCycles::no_targets            0                       # number of cycles access was blocked (Cycle)
system.cpu.itb_walker_cache.blockedCauses::no_mshrs            0                       # number of times access was blocked (Count)
system.cpu.itb_walker_cache.blockedCauses::no_targets            0                       # number of times access was blocked (Count)
system.cpu.itb_walker_cache.avgBlocked::no_mshrs          nan                       # average number of cycles each access was blocked ((Cycle/Count))
system.cpu.itb_walker_cache.avgBlocked::no_targets          nan                       # average number of cycles each access was blocked ((Cycle/Count))
system.cpu.itb_walker_cache.replacements            0                       # number of replacements (Count)
system.cpu.itb_walker_cache.power_state.pwrStateResidencyTicks::UNDEFINED    823563500                       # Cumulative time (in ticks) in various power states (Tick)
system.cpu.itb_walker_cache.tags.tagsInUse            0                       # Average ticks per tags in use ((Tick/Count))
system.cpu.itb_walker_cache.tags.totalRefs            0                       # Total number of references to valid blocks. (Count)
system.cpu.itb_walker_cache.tags.sampledRefs            0                       # Sample count of references to valid blocks. (Count)
system.cpu.itb_walker_cache.tags.avgRefs          nan                       # Average number of references to valid blocks. ((Count/Count))
system.cpu.itb_walker_cache.tags.warmupTick            0                       # The tick when the warmup percentage was hit. (Tick)
system.cpu.itb_walker_cache.tags.tagAccesses            0                       # Number of tag accesses (Count)
system.cpu.itb_walker_cache.tags.dataAccesses            0                       # Number of data accesses (Count)
system.cpu.itb_walker_cache.tags.power_state.pwrStateResidencyTicks::UNDEFINED    823563500                       # Cumulative time (in ticks) in various power states (Tick)
system.cpu.lsq0.forwLoads                       43540                       # Number of loads that had data forwarded from stores (Count)
system.cpu.lsq0.squashedLoads                  116497                       # Number of loads squashed (Count)
system.cpu.lsq0.ignoredResponses                  176                       # Number of memory responses ignored because the instruction is squashed (Count)
system.cpu.lsq0.memOrderViolation                 211                       # Number of memory ordering violations (Count)
system.cpu.lsq0.squashedStores                  45838                       # Number of stores squashed (Count)
system.cpu.lsq0.rescheduledLoads                    8                       # Number of loads that were rescheduled (Count)
system.cpu.lsq0.blockedByCache                    486                       # Number of times an access to memory failed due to the cache being blocked (Count)
system.cpu.lsq0.loadToUse::samples             256870                       # Distribution of cycle latency between the first time a load is issued and its completion (Unspecified)
system.cpu.lsq0.loadToUse::mean             11.187811                       # Distribution of cycle latency between the first time a load is issued and its completion (Unspecified)
[...]
system.mem_ctrls.dram.bwTotal::writebacks    152158273                       # Total bandwidth to/from this memory ((Byte/Second))
system.mem_ctrls.dram.bwTotal::cpu.inst     196997560                       # Total bandwidth to/from this memory ((Byte/Second))
system.mem_ctrls.dram.bwTotal::cpu.data     772758870                       # Total bandwidth to/from this memory ((Byte/Second))
system.mem_ctrls.dram.bwTotal::total       1121914704                       # Total bandwidth to/from this memory ((Byte/Second))
system.mem_ctrls.dram.readBursts                12379                       # Number of DRAM read bursts (Count)
system.mem_ctrls.dram.writeBursts                3957                       # Number of DRAM write bursts (Count)
system.mem_ctrls.dram.perBankRdBursts::0         1166                       # Per bank write bursts (Count)
system.mem_ctrls.dram.perBankRdBursts::1         1028                       # Per bank write bursts (Count)
system.mem_ctrls.dram.perBankRdBursts::2          768                       # Per bank write bursts (Count)
system.mem_ctrls.dram.perBankRdBursts::3          797                       # Per bank write bursts (Count)
system.mem_ctrls.dram.perBankRdBursts::4          575                       # Per bank write bursts (Count)
system.mem_ctrls.dram.perBankRdBursts::5          530                       # Per bank write bursts (Count)
system.mem_ctrls.dram.perBankRdBursts::6          707                       # Per bank write bursts (Count)
system.mem_ctrls.dram.perBankRdBursts::7          954                       # Per bank write bursts (Count)
system.mem_ctrls.dram.perBankRdBursts::8         1212                       # Per bank write bursts (Count)
system.mem_ctrls.dram.perBankRdBursts::9          750                       # Per bank write bursts (Count)
system.mem_ctrls.dram.perBankRdBursts::10          647                       # Per bank write bursts (Count)
system.mem_ctrls.dram.perBankRdBursts::11          632                       # Per bank write bursts (Count)
system.mem_ctrls.dram.perBankRdBursts::12          740                       # Per bank write bursts (Count)
system.mem_ctrls.dram.perBankRdBursts::13         1043                       # Per bank write bursts (Count)
system.mem_ctrls.dram.perBankRdBursts::14          446                       # Per bank write bursts (Count)
system.mem_ctrls.dram.perBankRdBursts::15          384                       # Per bank write bursts (Count)
system.mem_ctrls.dram.perBankWrBursts::0          259                       # Per bank write bursts (Count)
system.mem_ctrls.dram.perBankWrBursts::1          351                       # Per bank write bursts (Count)
system.mem_ctrls.dram.perBankWrBursts::2          151                       # Per bank write bursts (Count)
system.mem_ctrls.dram.perBankWrBursts::3           78                       # Per bank write bursts (Count)
system.mem_ctrls.dram.perBankWrBursts::4          180                       # Per bank write bursts (Count)
system.mem_ctrls.dram.perBankWrBursts::5          169                       # Per bank write bursts (Count)
system.mem_ctrls.dram.perBankWrBursts::6          271                       # Per bank write bursts (Count)
system.mem_ctrls.dram.perBankWrBursts::7          354                       # Per bank write bursts (Count)
system.mem_ctrls.dram.perBankWrBursts::8          253                       # Per bank write bursts (Count)
system.mem_ctrls.dram.perBankWrBursts::9          354                       # Per bank write bursts (Count)
system.mem_ctrls.dram.perBankWrBursts::10          395                       # Per bank write bursts (Count)
system.mem_ctrls.dram.perBankWrBursts::11          312                       # Per bank write bursts (Count)
system.mem_ctrls.dram.perBankWrBursts::12          298                       # Per bank write bursts (Count)
system.mem_ctrls.dram.perBankWrBursts::13          242                       # Per bank write bursts (Count)
system.mem_ctrls.dram.perBankWrBursts::14          207                       # Per bank write bursts (Count)
system.mem_ctrls.dram.perBankWrBursts::15           83                       # Per bank write bursts (Count)
system.mem_ctrls.dram.totQLat               187187500                       # Total ticks spent queuing (Tick)
system.mem_ctrls.dram.totBusLat              61895000                       # Total ticks spent in databus transfers (Tick)
system.mem_ctrls.dram.totMemAccLat          419293750                       # Total ticks spent from burst creation until serviced by the DRAM (Tick)
system.mem_ctrls.dram.avgQLat                15121.37                       # Average queueing delay per DRAM burst ((Tick/Count))
system.mem_ctrls.dram.avgBusLat               5000.00                       # Average bus latency per DRAM burst ((Tick/Count))
system.mem_ctrls.dram.avgMemAccLat           33871.37                       # Average memory access latency per DRAM burst ((Tick/Count))
system.mem_ctrls.dram.readRowHits                8345                       # Number of row buffer hits during reads (Count)
system.mem_ctrls.dram.writeRowHits               2587                       # Number of row buffer hits during writes (Count)
system.mem_ctrls.dram.readRowHitRate            67.41                       # Row buffer hit rate for reads (Ratio)
system.mem_ctrls.dram.writeRowHitRate           65.38                       # Row buffer hit rate for writes (Ratio)
system.mem_ctrls.dram.bytesPerActivate::samples         5393                       # Bytes accessed per row activation (Byte)
system.mem_ctrls.dram.bytesPerActivate::mean   193.590210                       # Bytes accessed per row activation (Byte)
system.mem_ctrls.dram.bytesPerActivate::gmean   128.692079                       # Bytes accessed per row activation (Byte)
system.mem_ctrls.dram.bytesPerActivate::stdev   222.158895                       # Bytes accessed per row activation (Byte)
system.mem_ctrls.dram.bytesPerActivate::0-127         2552     47.32%     47.32% # Bytes accessed per row activation (Byte)
system.mem_ctrls.dram.bytesPerActivate::128-255         1579     29.28%     76.60% # Bytes accessed per row activation (Byte)
system.mem_ctrls.dram.bytesPerActivate::256-383          500      9.27%     85.87% # Bytes accessed per row activation (Byte)
system.mem_ctrls.dram.bytesPerActivate::384-511          258      4.78%     90.65% # Bytes accessed per row activation (Byte)
system.mem_ctrls.dram.bytesPerActivate::512-639          153      2.84%     93.49% # Bytes accessed per row activation (Byte)
system.mem_ctrls.dram.bytesPerActivate::640-767           82      1.52%     95.01% # Bytes accessed per row activation (Byte)
system.mem_ctrls.dram.bytesPerActivate::768-895           53      0.98%     95.99% # Bytes accessed per row activation (Byte)
system.mem_ctrls.dram.bytesPerActivate::896-1023           28      0.52%     96.51% # Bytes accessed per row activation (Byte)
system.mem_ctrls.dram.bytesPerActivate::1024-1151          188      3.49%    100.00% # Bytes accessed per row activation (Byte)
system.mem_ctrls.dram.bytesPerActivate::total         5393                       # Bytes accessed per row activation (Byte)
system.mem_ctrls.dram.bytesRead                792256                       # Total bytes read (Byte)
system.mem_ctrls.dram.bytesWritten             253248                       # Total bytes written (Byte)
system.mem_ctrls.dram.avgRdBW              961.985324                       # Average DRAM read bandwidth in MiBytes/s ((Byte/Second))
system.mem_ctrls.dram.avgWrBW              307.502700                       # Average DRAM write bandwidth in MiBytes/s ((Byte/Second))
system.mem_ctrls.dram.peakBW                 12800.00                       # Theoretical peak bandwidth in MiByte/s ((Byte/Second))
system.mem_ctrls.dram.busUtil                    9.92                       # Data bus utilization in percentage (Ratio)
system.mem_ctrls.dram.busUtilRead                7.52                       # Data bus utilization in percentage for reads (Ratio)
system.mem_ctrls.dram.busUtilWrite               2.40                       # Data bus utilization in percentage for writes (Ratio)
system.mem_ctrls.dram.pageHitRate               66.92                       # Row buffer hit rate, read and write combined (Ratio)
system.mem_ctrls.dram.power_state.pwrStateResidencyTicks::UNDEFINED    823563500                       # Cumulative time (in ticks) in various power states (Tick)
system.mem_ctrls.dram.rank0.actEnergy        21541380                       # Energy for activate commands per rank (pJ) (Joule)
system.mem_ctrls.dram.rank0.preEnergy        11430540                       # Energy for precharge commands per rank (pJ) (Joule)
system.mem_ctrls.dram.rank0.readEnergy       46588500                       # Energy for read commands per rank (pJ) (Joule)
system.mem_ctrls.dram.rank0.writeEnergy       9442980                       # Energy for write commands per rank (pJ) (Joule)
system.mem_ctrls.dram.rank0.refreshEnergy 64537200.000000                       # Energy for refresh commands per rank (pJ) (Joule)
system.mem_ctrls.dram.rank0.actBackEnergy    360989550                       # Energy for active background per rank (pJ) (Joule)
system.mem_ctrls.dram.rank0.preBackEnergy     12257280                       # Energy for precharge background per rank (pJ) (Joule)
system.mem_ctrls.dram.rank0.actPowerDownEnergy            0                       # Energy for active power-down per rank (pJ) (Joule)
system.mem_ctrls.dram.rank0.prePowerDownEnergy            0                       # Energy for precharge power-down per rank (pJ) (Joule)
system.mem_ctrls.dram.rank0.selfRefreshEnergy            0                       # Energy for self refresh per rank (pJ) (Joule)
system.mem_ctrls.dram.rank0.totalEnergy     526787430                       # Total energy per rank (pJ) (Joule)
system.mem_ctrls.dram.rank0.averagePower   639.643974                       # Core power per rank (mW) (Watt)
system.mem_ctrls.dram.rank0.totalIdleTime            0                       # Total Idle time Per DRAM Rank (Tick)
system.mem_ctrls.dram.rank0.pwrStateTime::IDLE     28889250                       # Time in different power states (Tick)
system.mem_ctrls.dram.rank0.pwrStateTime::REF     27300000                       # Time in different power states (Tick)
system.mem_ctrls.dram.rank0.pwrStateTime::SREF            0                       # Time in different power states (Tick)
system.mem_ctrls.dram.rank0.pwrStateTime::PRE_PDN            0                       # Time in different power states (Tick)
system.mem_ctrls.dram.rank0.pwrStateTime::ACT    767374250                       # Time in different power states (Tick)
system.mem_ctrls.dram.rank0.pwrStateTime::ACT_PDN            0                       # Time in different power states (Tick)
system.mem_ctrls.dram.rank1.actEnergy        17028900                       # Energy for activate commands per rank (pJ) (Joule)
system.mem_ctrls.dram.rank1.preEnergy         9020715                       # Energy for precharge commands per rank (pJ) (Joule)
system.mem_ctrls.dram.rank1.readEnergy       41797560                       # Energy for read commands per rank (pJ) (Joule)
system.mem_ctrls.dram.rank1.writeEnergy      11186460                       # Energy for write commands per rank (pJ) (Joule)
system.mem_ctrls.dram.rank1.refreshEnergy 64537200.000000                       # Energy for refresh commands per rank (pJ) (Joule)
system.mem_ctrls.dram.rank1.actBackEnergy    328234500                       # Energy for active background per rank (pJ) (Joule)
system.mem_ctrls.dram.rank1.preBackEnergy     39840480                       # Energy for precharge background per rank (pJ) (Joule)
system.mem_ctrls.dram.rank1.actPowerDownEnergy            0                       # Energy for active power-down per rank (pJ) (Joule)
system.mem_ctrls.dram.rank1.prePowerDownEnergy            0                       # Energy for precharge power-down per rank (pJ) (Joule)
system.mem_ctrls.dram.rank1.selfRefreshEnergy            0                       # Energy for self refresh per rank (pJ) (Joule)
system.mem_ctrls.dram.rank1.totalEnergy     511645815                       # Total energy per rank (pJ) (Joule)
system.mem_ctrls.dram.rank1.averagePower   621.258488                       # Core power per rank (mW) (Watt)
system.mem_ctrls.dram.rank1.totalIdleTime            0                       # Total Idle time Per DRAM Rank (Tick)
system.mem_ctrls.dram.rank1.pwrStateTime::IDLE    100523500                       # Time in different power states (Tick)
system.mem_ctrls.dram.rank1.pwrStateTime::REF     27300000                       # Time in different power states (Tick)
system.mem_ctrls.dram.rank1.pwrStateTime::SREF            0                       # Time in different power states (Tick)
system.mem_ctrls.dram.rank1.pwrStateTime::PRE_PDN            0                       # Time in different power states (Tick)
system.mem_ctrls.dram.rank1.pwrStateTime::ACT    695740000                       # Time in different power states (Tick)
system.mem_ctrls.dram.rank1.pwrStateTime::ACT_PDN            0                       # Time in different power states (Tick)
system.mem_ctrls.power_state.pwrStateResidencyTicks::UNDEFINED    823563500                       # Cumulative time (in ticks) in various power states (Tick)
system.membus.transDist::ReadResp               10816                       # Transaction distribution (Count)
system.membus.transDist::WritebackDirty          1958                       # Transaction distribution (Count)
system.membus.transDist::WritebackClean          2023                       # Transaction distribution (Count)
system.membus.transDist::CleanEvict              7474                       # Transaction distribution (Count)
system.membus.transDist::UpgradeReq                 2                       # Transaction distribution (Count)
system.membus.transDist::ReadExReq               1665                       # Transaction distribution (Count)
system.membus.transDist::ReadExResp              1665                       # Transaction distribution (Count)
system.membus.transDist::ReadCleanReq            2538                       # Transaction distribution (Count)
system.membus.transDist::ReadSharedReq           8279                       # Transaction distribution (Count)
system.membus.pktCount_system.cpu.icache.mem_side_port::system.mem_ctrls.port         7096                       # Packet count per connected requestor and responder (Count)
system.membus.pktCount_system.cpu.icache.mem_side_port::total         7096                       # Packet count per connected requestor and responder (Count)
system.membus.pktCount_system.cpu.dcache.mem_side_port::system.mem_ctrls.port        29322                       # Packet count per connected requestor and responder (Count)
system.membus.pktCount_system.cpu.dcache.mem_side_port::total        29322                       # Packet count per connected requestor and responder (Count)
system.membus.pktCount::total                   36418                       # Packet count per connected requestor and responder (Count)
system.membus.pktSize_system.cpu.icache.mem_side_port::system.mem_ctrls.port       291712                       # Cumulative packet size per connected requestor and responder (Byte)
system.membus.pktSize_system.cpu.icache.mem_side_port::total       291712                       # Cumulative packet size per connected requestor and responder (Byte)
system.membus.pktSize_system.cpu.dcache.mem_side_port::system.mem_ctrls.port       761728                       # Cumulative packet size per connected requestor and responder (Byte)
system.membus.pktSize_system.cpu.dcache.mem_side_port::total       761728                       # Cumulative packet size per connected requestor and responder (Byte)
system.membus.pktSize::total                  1053440                       # Cumulative packet size per connected requestor and responder (Byte)
system.membus.snoops                                2                       # Total snoops (Count)
system.membus.snoopTraffic                        128                       # Total snoop traffic (Byte)
system.membus.snoopFanout::samples              12484                       # Request fanout histogram (Count)
system.membus.snoopFanout::mean              0.001202                       # Request fanout histogram (Count)
system.membus.snoopFanout::stdev             0.034644                       # Request fanout histogram (Count)
system.membus.snoopFanout::underflows               0      0.00%      0.00% # Request fanout histogram (Count)
system.membus.snoopFanout::0                    12469     99.88%     99.88% # Request fanout histogram (Count)
system.membus.snoopFanout::1                       15      0.12%    100.00% # Request fanout histogram (Count)
system.membus.snoopFanout::2                        0      0.00%    100.00% # Request fanout histogram (Count)
system.membus.snoopFanout::3                        0      0.00%    100.00% # Request fanout histogram (Count)
system.membus.snoopFanout::4                        0      0.00%    100.00% # Request fanout histogram (Count)
system.membus.snoopFanout::overflows                0      0.00%    100.00% # Request fanout histogram (Count)
system.membus.snoopFanout::min_value                0                       # Request fanout histogram (Count)
system.membus.snoopFanout::max_value                1                       # Request fanout histogram (Count)
system.membus.snoopFanout::total                12484                       # Request fanout histogram (Count)
system.membus.power_state.pwrStateResidencyTicks::UNDEFINED    823563500                       # Cumulative time (in ticks) in various power states (Tick)
system.membus.reqLayer2.occupancy            42135500                       # Layer occupancy (ticks) (Tick)
system.membus.reqLayer2.utilization               0.1                       # Layer utilization (Ratio)
system.membus.respLayer1.occupancy           13557000                       # Layer occupancy (ticks) (Tick)
system.membus.respLayer1.utilization              0.0                       # Layer utilization (Ratio)
system.membus.respLayer2.occupancy           53223750                       # Layer occupancy (ticks) (Tick)
system.membus.respLayer2.utilization              0.1                       # Layer utilization (Ratio)
system.membus.snoop_filter.totRequests          23939                       # Total number of requests made to the snoop filter. (Count)
system.membus.snoop_filter.hitSingleRequests        11456                       # Number of requests hitting in the snoop filter with a single holder of the requested data. (Count)
system.membus.snoop_filter.hitMultiRequests           14                       # Number of requests hitting in the snoop filter with multiple (>1) holders of the requested data. (Count)
system.membus.snoop_filter.totSnoops                0                       # Total number of snoops made to the snoop filter. (Count)
system.membus.snoop_filter.hitSingleSnoops            0                       # Number of snoops hitting in the snoop filter with a single holder of the requested data. (Count)
system.membus.snoop_filter.hitMultiSnoops            0                       # Number of snoops hitting in the snoop filter with multiple (>1) holders of the requested data. (Count)
system.voltage_domain.voltage                       1                       # Voltage in Volts (Volt)
system.workload.inst.arm                            0                       # number of arm instructions executed (Count)
system.workload.inst.quiesce                        0                       # number of quiesce instructions executed (Count)

---------- End Simulation Statistics   ----------
