
---------- Begin Simulation Statistics ----------
simSeconds                                   0.642265                       # Number of seconds simulated (Second)
simTicks                                 642265113000                       # Number of ticks simulated (Tick)
finalTick                                642265113000                       # Number of ticks from beginning of simulation (restored from checkpoints and never reset) (Tick)
simFreq                                  1000000000000                       # The number of ticks per simulated second ((Tick/Second))
hostSeconds                                  10832.61                       # Real time elapsed on the host (Second)
hostTickRate                                 59289957                       # The number of ticks simulated per host second (ticks/s) ((Tick/Second))
hostMemory                                    9009720                       # Number of bytes of host memory used (Byte)
simInsts                                   1000000004                       # Number of instructions simulated (Count)
simOps                                     1488935229                       # Number of ops (including micro ops) simulated (Count)
hostInstRate                                    92314                       # Simulator instruction rate (inst/s) ((Count/Second))
hostOpRate                                     137449                       # Simulator op (including micro ops) rate (op/s) ((Count/Second))
system.clk_domain.clock                          1000                       # Clock period in ticks (Tick)
system.cpu.numCycles                       1284530227                       # Number of cpu cycles simulated (Cycle)
system.cpu.numWorkItemsStarted                      0                       # Number of work items this cpu started (Count)
system.cpu.numWorkItemsCompleted                    0                       # Number of work items this cpu completed (Count)
system.cpu.instsAdded                      2526001069                       # Number of instructions added to the IQ (excludes non-spec) (Count)
system.cpu.nonSpecInstsAdded                      180                       # Number of non-speculative instructions added to the IQ (Count)
system.cpu.instsIssued                     2099658855                       # Number of instructions issued (Count)
system.cpu.squashedInstsIssued                1016047                       # Number of squashed instructions issued (Count)
system.cpu.squashedInstsExamined           1037065927                       # Number of squashed instructions iterated over during squash; mainly for profiling (Count)
system.cpu.squashedOperandsExamined        2286924773                       # Number of squashed operands that are examined and possibly removed from graph (Count)
system.cpu.squashedNonSpecRemoved                  72                       # Number of squashed non-spec instructions that were removed (Count)
system.cpu.numIssuedDist::samples          1284445190                       # Number of insts issued each cycle (Count)
system.cpu.numIssuedDist::mean               1.634682                       # Number of insts issued each cycle (Count)
system.cpu.numIssuedDist::stdev              2.102175                       # Number of insts issued each cycle (Count)
system.cpu.numIssuedDist::underflows                0      0.00%      0.00% # Number of insts issued each cycle (Count)
system.cpu.numIssuedDist::0                 668029279     52.01%     52.01% # Number of insts issued each cycle (Count)
system.cpu.numIssuedDist::1                 106067015      8.26%     60.27% # Number of insts issued each cycle (Count)
system.cpu.numIssuedDist::2                 106915452      8.32%     68.59% # Number of insts issued each cycle (Count)
system.cpu.numIssuedDist::3                 133469459     10.39%     78.98% # Number of insts issued each cycle (Count)
system.cpu.numIssuedDist::4                 101808095      7.93%     86.91% # Number of insts issued each cycle (Count)
system.cpu.numIssuedDist::5                  74863127      5.83%     92.74% # Number of insts issued each cycle (Count)
system.cpu.numIssuedDist::6                  65140791      5.07%     97.81% # Number of insts issued each cycle (Count)
system.cpu.numIssuedDist::7                  18255978      1.42%     99.23% # Number of insts issued each cycle (Count)
system.cpu.numIssuedDist::8                   9895994      0.77%    100.00% # Number of insts issued each cycle (Count)
system.cpu.numIssuedDist::overflows                 0      0.00%    100.00% # Number of insts issued each cycle (Count)
system.cpu.numIssuedDist::min_value                 0                       # Number of insts issued each cycle (Count)
system.cpu.numIssuedDist::max_value                 8                       # Number of insts issued each cycle (Count)
system.cpu.numIssuedDist::total            1284445190                       # Number of insts issued each cycle (Count)
system.cpu.statFuBusy::No_OpClass                   0      0.00%      0.00% # attempts to use FU when none available (Count)
system.cpu.statFuBusy::IntAlu                14860719     95.49%     95.49% # attempts to use FU when none available (Count)
system.cpu.statFuBusy::IntMult                      0      0.00%     95.49% # attempts to use FU when none available (Count)
system.cpu.statFuBusy::IntDiv                       0      0.00%     95.49% # attempts to use FU when none available (Count)
system.cpu.statFuBusy::FloatAdd                     0      0.00%     95.49% # attempts to use FU when none available (Count)
system.cpu.statFuBusy::FloatCmp                     0      0.00%     95.49% # attempts to use FU when none available (Count)
system.cpu.statFuBusy::FloatCvt                     0      0.00%     95.49% # attempts to use FU when none available (Count)
system.cpu.statFuBusy::FloatMult                    0      0.00%     95.49% # attempts to use FU when none available (Count)
system.cpu.statFuBusy::FloatMultAcc                 0      0.00%     95.49% # attempts to use FU when none available (Count)
system.cpu.statFuBusy::FloatDiv                     0      0.00%     95.49% # attempts to use FU when none available (Count)
system.cpu.statFuBusy::FloatMisc                    0      0.00%     95.49% # attempts to use FU when none available (Count)
system.cpu.statFuBusy::FloatSqrt                    0      0.00%     95.49% # attempts to use FU when none available (Count)
system.cpu.statFuBusy::SimdAdd                      0      0.00%     95.49% # attempts to use FU when none available (Count)
system.cpu.statFuBusy::SimdAddAcc                   0      0.00%     95.49% # attempts to use FU when none available (Count)
system.cpu.statFuBusy::SimdAlu                      0      0.00%     95.49% # attempts to use FU when none available (Count)
system.cpu.statFuBusy::SimdCmp                      0      0.00%     95.49% # attempts to use FU when none available (Count)
system.cpu.statFuBusy::SimdCvt                      1      0.00%     95.49% # attempts to use FU when none available (Count)
system.cpu.statFuBusy::SimdMisc                     0      0.00%     95.49% # attempts to use FU when none available (Count)
system.cpu.statFuBusy::SimdMult                     0      0.00%     95.49% # attempts to use FU when none available (Count)
system.cpu.statFuBusy::SimdMultAcc                  0      0.00%     95.49% # attempts to use FU when none available (Count)
system.cpu.statFuBusy::SimdShift                    0      0.00%     95.49% # attempts to use FU when none available (Count)
system.cpu.statFuBusy::SimdShiftAcc                 0      0.00%     95.49% # attempts to use FU when none available (Count)
system.cpu.statFuBusy::SimdDiv                      0      0.00%     95.49% # attempts to use FU when none available (Count)
system.cpu.statFuBusy::SimdSqrt                     0      0.00%     95.49% # attempts to use FU when none available (Count)
system.cpu.statFuBusy::SimdFloatAdd                 0      0.00%     95.49% # attempts to use FU when none available (Count)
system.cpu.statFuBusy::SimdFloatAlu                 0      0.00%     95.49% # attempts to use FU when none available (Count)
system.cpu.statFuBusy::SimdFloatCmp                 0      0.00%     95.49% # attempts to use FU when none available (Count)
system.cpu.statFuBusy::SimdFloatCvt                 0      0.00%     95.49% # attempts to use FU when none available (Count)
system.cpu.statFuBusy::SimdFloatDiv                 0      0.00%     95.49% # attempts to use FU when none available (Count)
system.cpu.statFuBusy::SimdFloatMisc                0      0.00%     95.49% # attempts to use FU when none available (Count)
system.cpu.statFuBusy::SimdFloatMult                0      0.00%     95.49% # attempts to use FU when none available (Count)
system.cpu.statFuBusy::SimdFloatMultAcc             0      0.00%     95.49% # attempts to use FU when none available (Count)
system.cpu.statFuBusy::SimdFloatSqrt                0      0.00%     95.49% # attempts to use FU when none available (Count)
system.cpu.statFuBusy::SimdReduceAdd                0      0.00%     95.49% # attempts to use FU when none available (Count)
system.cpu.statFuBusy::SimdReduceAlu                0      0.00%     95.49% # attempts to use FU when none available (Count)
system.cpu.statFuBusy::SimdReduceCmp                0      0.00%     95.49% # attempts to use FU when none available (Count)
system.cpu.statFuBusy::SimdFloatReduceAdd            0      0.00%     95.49% # attempts to use FU when none available (Count)
system.cpu.statFuBusy::SimdFloatReduceCmp            0      0.00%     95.49% # attempts to use FU when none available (Count)
system.cpu.statFuBusy::SimdAes                      0      0.00%     95.49% # attempts to use FU when none available (Count)
system.cpu.statFuBusy::SimdAesMix                   0      0.00%     95.49% # attempts to use FU when none available (Count)
system.cpu.statFuBusy::SimdSha1Hash                 0      0.00%     95.49% # attempts to use FU when none available (Count)
system.cpu.statFuBusy::SimdSha1Hash2                0      0.00%     95.49% # attempts to use FU when none available (Count)
system.cpu.statFuBusy::SimdSha256Hash               0      0.00%     95.49% # attempts to use FU when none available (Count)
system.cpu.statFuBusy::SimdSha256Hash2              0      0.00%     95.49% # attempts to use FU when none available (Count)
system.cpu.statFuBusy::SimdShaSigma2                0      0.00%     95.49% # attempts to use FU when none available (Count)
system.cpu.statFuBusy::SimdShaSigma3                0      0.00%     95.49% # attempts to use FU when none available (Count)
system.cpu.statFuBusy::SimdPredAlu                  0      0.00%     95.49% # attempts to use FU when none available (Count)
system.cpu.statFuBusy::MemRead                 397814      2.56%     98.05% # attempts to use FU when none available (Count)
system.cpu.statFuBusy::MemWrite                258542      1.66%     99.71% # attempts to use FU when none available (Count)
system.cpu.statFuBusy::FloatMemRead             42892      0.28%     99.99% # attempts to use FU when none available (Count)
system.cpu.statFuBusy::FloatMemWrite             2165      0.01%    100.00% # attempts to use FU when none available (Count)
system.cpu.statFuBusy::IprAccess                    0      0.00%    100.00% # attempts to use FU when none available (Count)
system.cpu.statFuBusy::InstPrefetch                 0      0.00%    100.00% # attempts to use FU when none available (Count)
system.cpu.statIssuedInstType_0::No_OpClass       485130      0.02%      0.02% # Number of instructions issued per FU type, per thread (Count)
system.cpu.statIssuedInstType_0::IntAlu    1742977624     83.01%     83.04% # Number of instructions issued per FU type, per thread (Count)
system.cpu.statIssuedInstType_0::IntMult     36358775      1.73%     84.77% # Number of instructions issued per FU type, per thread (Count)
system.cpu.statIssuedInstType_0::IntDiv          3181      0.00%     84.77% # Number of instructions issued per FU type, per thread (Count)
system.cpu.statIssuedInstType_0::FloatAdd       345127      0.02%     84.78% # Number of instructions issued per FU type, per thread (Count)
system.cpu.statIssuedInstType_0::FloatCmp            0      0.00%     84.78% # Number of instructions issued per FU type, per thread (Count)
system.cpu.statIssuedInstType_0::FloatCvt          315      0.00%     84.78% # Number of instructions issued per FU type, per thread (Count)
system.cpu.statIssuedInstType_0::FloatMult            0      0.00%     84.78% # Number of instructions issued per FU type, per thread (Count)
system.cpu.statIssuedInstType_0::FloatMultAcc            0      0.00%     84.78% # Number of instructions issued per FU type, per thread (Count)
system.cpu.statIssuedInstType_0::FloatDiv            0      0.00%     84.78% # Number of instructions issued per FU type, per thread (Count)
system.cpu.statIssuedInstType_0::FloatMisc            0      0.00%     84.78% # Number of instructions issued per FU type, per thread (Count)
system.cpu.statIssuedInstType_0::FloatSqrt            0      0.00%     84.78% # Number of instructions issued per FU type, per thread (Count)
system.cpu.statIssuedInstType_0::SimdAdd            0      0.00%     84.78% # Number of instructions issued per FU type, per thread (Count)
system.cpu.statIssuedInstType_0::SimdAddAcc            0      0.00%     84.78% # Number of instructions issued per FU type, per thread (Count)
system.cpu.statIssuedInstType_0::SimdAlu         2265      0.00%     84.78% # Number of instructions issued per FU type, per thread (Count)
system.cpu.statIssuedInstType_0::SimdCmp            0      0.00%     84.78% # Number of instructions issued per FU type, per thread (Count)
system.cpu.statIssuedInstType_0::SimdCvt          101      0.00%     84.78% # Number of instructions issued per FU type, per thread (Count)
system.cpu.statIssuedInstType_0::SimdMisc        57623      0.00%     84.79% # Number of instructions issued per FU type, per thread (Count)
system.cpu.statIssuedInstType_0::SimdMult            0      0.00%     84.79% # Number of instructions issued per FU type, per thread (Count)
system.cpu.statIssuedInstType_0::SimdMultAcc            0      0.00%     84.79% # Number of instructions issued per FU type, per thread (Count)
system.cpu.statIssuedInstType_0::SimdShift            0      0.00%     84.79% # Number of instructions issued per FU type, per thread (Count)
system.cpu.statIssuedInstType_0::SimdShiftAcc            0      0.00%     84.79% # Number of instructions issued per FU type, per thread (Count)
system.cpu.statIssuedInstType_0::SimdDiv            0      0.00%     84.79% # Number of instructions issued per FU type, per thread (Count)
system.cpu.statIssuedInstType_0::SimdSqrt            0      0.00%     84.79% # Number of instructions issued per FU type, per thread (Count)
system.cpu.statIssuedInstType_0::SimdFloatAdd            0      0.00%     84.79% # Number of instructions issued per FU type, per thread (Count)
system.cpu.statIssuedInstType_0::SimdFloatAlu            0      0.00%     84.79% # Number of instructions issued per FU type, per thread (Count)
system.cpu.statIssuedInstType_0::SimdFloatCmp            0      0.00%     84.79% # Number of instructions issued per FU type, per thread (Count)
system.cpu.statIssuedInstType_0::SimdFloatCvt            0      0.00%     84.79% # Number of instructions issued per FU type, per thread (Count)
system.cpu.statIssuedInstType_0::SimdFloatDiv            0      0.00%     84.79% # Number of instructions issued per FU type, per thread (Count)
system.cpu.statIssuedInstType_0::SimdFloatMisc            0      0.00%     84.79% # Number of instructions issued per FU type, per thread (Count)
system.cpu.statIssuedInstType_0::SimdFloatMult            0      0.00%     84.79% # Number of instructions issued per FU type, per thread (Count)
system.cpu.statIssuedInstType_0::SimdFloatMultAcc            0      0.00%     84.79% # Number of instructions issued per FU type, per thread (Count)
system.cpu.statIssuedInstType_0::SimdFloatSqrt            0      0.00%     84.79% # Number of instructions issued per FU type, per thread (Count)
system.cpu.statIssuedInstType_0::SimdReduceAdd            0      0.00%     84.79% # Number of instructions issued per FU type, per thread (Count)
system.cpu.statIssuedInstType_0::SimdReduceAlu            0      0.00%     84.79% # Number of instructions issued per FU type, per thread (Count)
system.cpu.statIssuedInstType_0::SimdReduceCmp            0      0.00%     84.79% # Number of instructions issued per FU type, per thread (Count)
system.cpu.statIssuedInstType_0::SimdFloatReduceAdd            0      0.00%     84.79% # Number of instructions issued per FU type, per thread (Count)
system.cpu.statIssuedInstType_0::SimdFloatReduceCmp            0      0.00%     84.79% # Number of instructions issued per FU type, per thread (Count)
system.cpu.statIssuedInstType_0::SimdAes            0      0.00%     84.79% # Number of instructions issued per FU type, per thread (Count)
system.cpu.statIssuedInstType_0::SimdAesMix            0      0.00%     84.79% # Number of instructions issued per FU type, per thread (Count)
system.cpu.statIssuedInstType_0::SimdSha1Hash            0      0.00%     84.79% # Number of instructions issued per FU type, per thread (Count)
system.cpu.statIssuedInstType_0::SimdSha1Hash2            0      0.00%     84.79% # Number of instructions issued per FU type, per thread (Count)
system.cpu.statIssuedInstType_0::SimdSha256Hash            0      0.00%     84.79% # Number of instructions issued per FU type, per thread (Count)
system.cpu.statIssuedInstType_0::SimdSha256Hash2            0      0.00%     84.79% # Number of instructions issued per FU type, per thread (Count)
system.cpu.statIssuedInstType_0::SimdShaSigma2            0      0.00%     84.79% # Number of instructions issued per FU type, per thread (Count)
system.cpu.statIssuedInstType_0::SimdShaSigma3            0      0.00%     84.79% # Number of instructions issued per FU type, per thread (Count)
system.cpu.statIssuedInstType_0::SimdPredAlu            0      0.00%     84.79% # Number of instructions issued per FU type, per thread (Count)
system.cpu.statIssuedInstType_0::MemRead    221070681     10.53%     95.32% # Number of instructions issued per FU type, per thread (Count)
system.cpu.statIssuedInstType_0::MemWrite     97975317      4.67%     99.98% # Number of instructions issued per FU type, per thread (Count)
system.cpu.statIssuedInstType_0::FloatMemRead       334540      0.02%    100.00% # Number of instructions issued per FU type, per thread (Count)
system.cpu.statIssuedInstType_0::FloatMemWrite        48176      0.00%    100.00% # Number of instructions issued per FU type, per thread (Count)
system.cpu.statIssuedInstType_0::IprAccess            0      0.00%    100.00% # Number of instructions issued per FU type, per thread (Count)
system.cpu.statIssuedInstType_0::InstPrefetch            0      0.00%    100.00% # Number of instructions issued per FU type, per thread (Count)
system.cpu.statIssuedInstType_0::total     2099658855                       # Number of instructions issued per FU type, per thread (Count)
system.cpu.issueRate                         1.634573                       # Inst issue rate ((Count/Cycle))
system.cpu.fuBusy                            15562133                       # FU busy when requested (Count)
system.cpu.fuBusyRate                        0.007412                       # FU busy rate (busy events/executed inst) ((Count/Count))
system.cpu.intInstQueueReads               5498673102                       # Number of integer instruction queue reads (Count)
system.cpu.intInstQueueWrites              3561201161                       # Number of integer instruction queue writes (Count)
system.cpu.intInstQueueWakeupAccesses      2047181094                       # Number of integer instruction queue wakeup accesses (Count)
system.cpu.fpInstQueueReads                   1667977                       # Number of floating instruction queue reads (Count)
system.cpu.fpInstQueueWrites                  1969238                       # Number of floating instruction queue writes (Count)
system.cpu.fpInstQueueWakeupAccesses           389192                       # Number of floating instruction queue wakeup accesses (Count)
system.cpu.vecInstQueueReads                        0                       # Number of vector instruction queue reads (Count)
system.cpu.vecInstQueueWrites                       0                       # Number of vector instruction queue writes (Count)
system.cpu.vecInstQueueWakeupAccesses               0                       # Number of vector instruction queue wakeup accesses (Count)
system.cpu.intAluAccesses                  2113895436                       # Number of integer alu accesses (Count)
system.cpu.fpAluAccesses                       840422                       # Number of floating point alu accesses (Count)
system.cpu.vecAluAccesses                           0                       # Number of vector alu accesses (Count)
system.cpu.numInsts                        2072497048                       # Number of executed instructions (Count)
system.cpu.numLoadInsts                     216615420                       # Number of load instructions executed (Count)
system.cpu.numSquashedInsts                  27161806                       # Number of squashed instructions skipped in execute (Count)
system.cpu.numSwp                                   0                       # Number of swp insts executed (Count)
system.cpu.numNop                                   0                       # Number of nop insts executed (Count)
system.cpu.numRefs                          310106046                       # Number of memory reference insts executed (Count)
system.cpu.numBranches                      175223075                       # Number of branches executed (Count)
system.cpu.numStoreInsts                     93490626                       # Number of stores executed (Count)
system.cpu.numRate                           1.613428                       # Inst execution rate ((Count/Cycle))
system.cpu.timesIdled                             947                       # Number of times that the entire CPU went into an idle state and unscheduled itself (Count)
system.cpu.idleCycles                           85037                       # Total number of cycles that the CPU has spent unscheduled due to idling (Cycle)
system.cpu.committedInsts                  1000000004                       # Number of Instructions Simulated (Count)
system.cpu.committedOps                    1488935229                       # Number of Ops (including micro ops) Simulated (Count)
system.cpu.cpi                               1.284530                       # CPI: Cycles Per Instruction ((Cycle/Count))
system.cpu.totalCpi                          1.284530                       # CPI: Total CPI of All Threads ((Cycle/Count))
system.cpu.ipc                               0.778495                       # IPC: Instructions Per Cycle ((Count/Cycle))
system.cpu.totalIpc                          0.778495                       # IPC: Total IPC of All Threads ((Count/Cycle))
system.cpu.intRegfileReads                 3132100219                       # Number of integer regfile reads (Count)
system.cpu.intRegfileWrites                1652943196                       # Number of integer regfile writes (Count)
system.cpu.fpRegfileReads                      136312                       # Number of floating regfile reads (Count)
system.cpu.fpRegfileWrites                     404633                       # Number of floating regfile writes (Count)
system.cpu.ccRegfileReads                   935977556                       # number of cc regfile reads (Count)
system.cpu.ccRegfileWrites                 1100311024                       # number of cc regfile writes (Count)
system.cpu.miscRegfileReads                 690960752                       # number of misc regfile reads (Count)
system.cpu.miscRegfileWrites                      108                       # number of misc regfile writes (Count)
system.cpu.MemDepUnit__0.insertedLoads      248523805                       # Number of loads inserted to the mem dependence unit. (Count)
system.cpu.MemDepUnit__0.insertedStores     126742940                       # Number of stores inserted to the mem dependence unit. (Count)
system.cpu.MemDepUnit__0.conflictingLoads     41858834                       # Number of conflicting loads. (Count)
system.cpu.MemDepUnit__0.conflictingStores      8628344                       # Number of conflicting stores. (Count)
system.cpu.MemDepUnit__1.insertedLoads              0                       # Number of loads inserted to the mem dependence unit. (Count)
system.cpu.MemDepUnit__1.insertedStores             0                       # Number of stores inserted to the mem dependence unit. (Count)
system.cpu.MemDepUnit__1.conflictingLoads            0                       # Number of conflicting loads. (Count)
system.cpu.MemDepUnit__1.conflictingStores            0                       # Number of conflicting stores. (Count)
system.cpu.MemDepUnit__2.insertedLoads              0                       # Number of loads inserted to the mem dependence unit. (Count)
system.cpu.MemDepUnit__2.insertedStores             0                       # Number of stores inserted to the mem dependence unit. (Count)
system.cpu.MemDepUnit__2.conflictingLoads            0                       # Number of conflicting loads. (Count)
system.cpu.MemDepUnit__2.conflictingStores            0                       # Number of conflicting stores. (Count)
system.cpu.MemDepUnit__3.insertedLoads              0                       # Number of loads inserted to the mem dependence unit. (Count)
system.cpu.MemDepUnit__3.insertedStores             0                       # Number of stores inserted to the mem dependence unit. (Count)
system.cpu.MemDepUnit__3.conflictingLoads            0                       # Number of conflicting loads. (Count)
system.cpu.MemDepUnit__3.conflictingStores            0                       # Number of conflicting stores. (Count)
system.cpu.branchPred.lookups               246384713                       # Number of BP lookups (Count)
system.cpu.branchPred.condPredicted         203847684                       # Number of conditional branches predicted (Count)
system.cpu.branchPred.condIncorrect          12143103                       # Number of conditional branches incorrect (Count)
system.cpu.branchPred.BTBLookups            164227417                       # Number of BTB lookups (Count)
system.cpu.branchPred.BTBHits               163960076                       # Number of BTB hits (Count)
system.cpu.branchPred.BTBHitRatio            0.998372                       # BTB Hit Ratio (Ratio)
system.cpu.branchPred.RASUsed                  664952                       # Number of times the RAS was used to get a target. (Count)
system.cpu.branchPred.RASIncorrect                 80                       # Number of incorrect RAS predictions. (Count)
system.cpu.branchPred.indirectLookups          438657                       # Number of indirect predictor lookups. (Count)
system.cpu.branchPred.indirectHits             419429                       # Number of indirect target hits. (Count)
system.cpu.branchPred.indirectMisses            19228                       # Number of indirect misses. (Count)
system.cpu.branchPred.indirectMispredicted         4422                       # Number of mispredicted indirect branches. (Count)
system.cpu.commit.commitSquashedInsts      1036992584                       # The number of squashed insts skipped by commit (Count)
system.cpu.commit.commitNonSpecStalls             108                       # The number of times commit has been forced to stall to communicate backwards (Count)
system.cpu.commit.branchMispredicts          12134352                       # The number of times a branch was mispredicted (Count)
system.cpu.commit.numCommittedDist::samples   1149166420                       # Number of insts commited each cycle (Count)
system.cpu.commit.numCommittedDist::mean     1.295665                       # Number of insts commited each cycle (Count)
system.cpu.commit.numCommittedDist::stdev     2.262799                       # Number of insts commited each cycle (Count)
system.cpu.commit.numCommittedDist::underflows            0      0.00%      0.00% # Number of insts commited each cycle (Count)
system.cpu.commit.numCommittedDist::0       682658465     59.40%     59.40% # Number of insts commited each cycle (Count)
system.cpu.commit.numCommittedDist::1       184645207     16.07%     75.47% # Number of insts commited each cycle (Count)
system.cpu.commit.numCommittedDist::2        57332192      4.99%     80.46% # Number of insts commited each cycle (Count)
system.cpu.commit.numCommittedDist::3        83676368      7.28%     87.74% # Number of insts commited each cycle (Count)
system.cpu.commit.numCommittedDist::4        31993944      2.78%     90.53% # Number of insts commited each cycle (Count)
system.cpu.commit.numCommittedDist::5         8317331      0.72%     91.25% # Number of insts commited each cycle (Count)
system.cpu.commit.numCommittedDist::6        10592521      0.92%     92.17% # Number of insts commited each cycle (Count)
system.cpu.commit.numCommittedDist::7        14124159      1.23%     93.40% # Number of insts commited each cycle (Count)
system.cpu.commit.numCommittedDist::8        75826233      6.60%    100.00% # Number of insts commited each cycle (Count)
system.cpu.commit.numCommittedDist::overflows            0      0.00%    100.00% # Number of insts commited each cycle (Count)
system.cpu.commit.numCommittedDist::min_value            0                       # Number of insts commited each cycle (Count)
system.cpu.commit.numCommittedDist::max_value            8                       # Number of insts commited each cycle (Count)
system.cpu.commit.numCommittedDist::total   1149166420                       # Number of insts commited each cycle (Count)
system.cpu.commit.instsCommitted           1000000004                       # Number of instructions committed (Count)
system.cpu.commit.opsCommitted             1488935229                       # Number of ops (including micro ops) committed (Count)
system.cpu.commit.memRefs                   206376530                       # Number of memory references committed (Count)
system.cpu.commit.loads                     142659643                       # Number of loads committed (Count)
system.cpu.commit.amos                              0                       # Number of atomic instructions committed (Count)
system.cpu.commit.membars                           0                       # Number of memory barriers committed (Count)
system.cpu.commit.branches                  124539593                       # Number of branches committed (Count)
system.cpu.commit.vectorInstructions                0                       # Number of committed Vector instructions. (Count)
system.cpu.commit.floating                      40024                       # Number of committed floating point instructions. (Count)
system.cpu.commit.integer                  1486549273                       # Number of committed integer instructions. (Count)
system.cpu.commit.functionCalls                261796                       # Number of function calls committed. (Count)
system.cpu.commit.committedInstType_0::No_OpClass       231251      0.02%      0.02% # Class of committed instruction (Count)
system.cpu.commit.committedInstType_0::IntAlu   1246311934     83.70%     83.72% # Class of committed instruction (Count)
system.cpu.commit.committedInstType_0::IntMult     35998525      2.42%     86.14% # Class of committed instruction (Count)
system.cpu.commit.committedInstType_0::IntDiv         2927      0.00%     86.14% # Class of committed instruction (Count)
system.cpu.commit.committedInstType_0::FloatAdd         8683      0.00%     86.14% # Class of committed instruction (Count)
system.cpu.commit.committedInstType_0::FloatCmp            0      0.00%     86.14% # Class of committed instruction (Count)
system.cpu.commit.committedInstType_0::FloatCvt          192      0.00%     86.14% # Class of committed instruction (Count)
system.cpu.commit.committedInstType_0::FloatMult            0      0.00%     86.14% # Class of committed instruction (Count)
system.cpu.commit.committedInstType_0::FloatMultAcc            0      0.00%     86.14% # Class of committed instruction (Count)
system.cpu.commit.committedInstType_0::FloatDiv            0      0.00%     86.14% # Class of committed instruction (Count)
system.cpu.commit.committedInstType_0::FloatMisc            0      0.00%     86.14% # Class of committed instruction (Count)
system.cpu.commit.committedInstType_0::FloatSqrt            0      0.00%     86.14% # Class of committed instruction (Count)
system.cpu.commit.committedInstType_0::SimdAdd            0      0.00%     86.14% # Class of committed instruction (Count)
system.cpu.commit.committedInstType_0::SimdAddAcc            0      0.00%     86.14% # Class of committed instruction (Count)
system.cpu.commit.committedInstType_0::SimdAlu           48      0.00%     86.14% # Class of committed instruction (Count)
system.cpu.commit.committedInstType_0::SimdCmp            0      0.00%     86.14% # Class of committed instruction (Count)
system.cpu.commit.committedInstType_0::SimdCvt           78      0.00%     86.14% # Class of committed instruction (Count)
system.cpu.commit.committedInstType_0::SimdMisc         5061      0.00%     86.14% # Class of committed instruction (Count)
system.cpu.commit.committedInstType_0::SimdMult            0      0.00%     86.14% # Class of committed instruction (Count)
system.cpu.commit.committedInstType_0::SimdMultAcc            0      0.00%     86.14% # Class of committed instruction (Count)
system.cpu.commit.committedInstType_0::SimdShift            0      0.00%     86.14% # Class of committed instruction (Count)
system.cpu.commit.committedInstType_0::SimdShiftAcc            0      0.00%     86.14% # Class of committed instruction (Count)
system.cpu.commit.committedInstType_0::SimdDiv            0      0.00%     86.14% # Class of committed instruction (Count)
system.cpu.commit.committedInstType_0::SimdSqrt            0      0.00%     86.14% # Class of committed instruction (Count)
system.cpu.commit.committedInstType_0::SimdFloatAdd            0      0.00%     86.14% # Class of committed instruction (Count)
system.cpu.commit.committedInstType_0::SimdFloatAlu            0      0.00%     86.14% # Class of committed instruction (Count)
system.cpu.commit.committedInstType_0::SimdFloatCmp            0      0.00%     86.14% # Class of committed instruction (Count)
system.cpu.commit.committedInstType_0::SimdFloatCvt            0      0.00%     86.14% # Class of committed instruction (Count)
system.cpu.commit.committedInstType_0::SimdFloatDiv            0      0.00%     86.14% # Class of committed instruction (Count)
system.cpu.commit.committedInstType_0::SimdFloatMisc            0      0.00%     86.14% # Class of committed instruction (Count)
system.cpu.commit.committedInstType_0::SimdFloatMult            0      0.00%     86.14% # Class of committed instruction (Count)
system.cpu.commit.committedInstType_0::SimdFloatMultAcc            0      0.00%     86.14% # Class of committed instruction (Count)
system.cpu.commit.committedInstType_0::SimdFloatSqrt            0      0.00%     86.14% # Class of committed instruction (Count)
system.cpu.commit.committedInstType_0::SimdReduceAdd            0      0.00%     86.14% # Class of committed instruction (Count)
system.cpu.commit.committedInstType_0::SimdReduceAlu            0      0.00%     86.14% # Class of committed instruction (Count)
system.cpu.commit.committedInstType_0::SimdReduceCmp            0      0.00%     86.14% # Class of committed instruction (Count)
system.cpu.commit.committedInstType_0::SimdFloatReduceAdd            0      0.00%     86.14% # Class of committed instruction (Count)
system.cpu.commit.committedInstType_0::SimdFloatReduceCmp            0      0.00%     86.14% # Class of committed instruction (Count)
system.cpu.commit.committedInstType_0::SimdAes            0      0.00%     86.14% # Class of committed instruction (Count)
system.cpu.commit.committedInstType_0::SimdAesMix            0      0.00%     86.14% # Class of committed instruction (Count)
system.cpu.commit.committedInstType_0::SimdSha1Hash            0      0.00%     86.14% # Class of committed instruction (Count)
system.cpu.commit.committedInstType_0::SimdSha1Hash2            0      0.00%     86.14% # Class of committed instruction (Count)
system.cpu.commit.committedInstType_0::SimdSha256Hash            0      0.00%     86.14% # Class of committed instruction (Count)
system.cpu.commit.committedInstType_0::SimdSha256Hash2            0      0.00%     86.14% # Class of committed instruction (Count)
system.cpu.commit.committedInstType_0::SimdShaSigma2            0      0.00%     86.14% # Class of committed instruction (Count)
system.cpu.commit.committedInstType_0::SimdShaSigma3            0      0.00%     86.14% # Class of committed instruction (Count)
system.cpu.commit.committedInstType_0::SimdPredAlu            0      0.00%     86.14% # Class of committed instruction (Count)
system.cpu.commit.committedInstType_0::MemRead    142646989      9.58%     95.72% # Class of committed instruction (Count)
system.cpu.commit.committedInstType_0::MemWrite     63704857      4.28%    100.00% # Class of committed instruction (Count)
system.cpu.commit.committedInstType_0::FloatMemRead        12654      0.00%    100.00% # Class of committed instruction (Count)
system.cpu.commit.committedInstType_0::FloatMemWrite        12030      0.00%    100.00% # Class of committed instruction (Count)
system.cpu.commit.committedInstType_0::IprAccess            0      0.00%    100.00% # Class of committed instruction (Count)
system.cpu.commit.committedInstType_0::InstPrefetch            0      0.00%    100.00% # Class of committed instruction (Count)
system.cpu.commit.committedInstType_0::total   1488935229                       # Class of committed instruction (Count)
system.cpu.commit.commitEligibleSamples      75826233                       # number cycles where commit BW limit reached (Cycle)
system.cpu.dcache.demandHits::cpu.data      248009976                       # number of demand (read+write) hits (Count)
system.cpu.dcache.demandHits::total         248009976                       # number of demand (read+write) hits (Count)
system.cpu.dcache.overallHits::cpu.data     248009976                       # number of overall hits (Count)
system.cpu.dcache.overallHits::total        248009976                       # number of overall hits (Count)
system.cpu.dcache.demandMisses::cpu.data      4815353                       # number of demand (read+write) misses (Count)
system.cpu.dcache.demandMisses::total         4815353                       # number of demand (read+write) misses (Count)
system.cpu.dcache.overallMisses::cpu.data      4815353                       # number of overall misses (Count)
system.cpu.dcache.overallMisses::total        4815353                       # number of overall misses (Count)
system.cpu.dcache.demandMissLatency::cpu.data 302168392804                       # number of demand (read+write) miss ticks (Tick)
system.cpu.dcache.demandMissLatency::total 302168392804                       # number of demand (read+write) miss ticks (Tick)
system.cpu.dcache.overallMissLatency::cpu.data 302168392804                       # number of overall miss ticks (Tick)
system.cpu.dcache.overallMissLatency::total 302168392804                       # number of overall miss ticks (Tick)
system.cpu.dcache.demandAccesses::cpu.data    252825329                       # number of demand (read+write) accesses (Count)
system.cpu.dcache.demandAccesses::total     252825329                       # number of demand (read+write) accesses (Count)
system.cpu.dcache.overallAccesses::cpu.data    252825329                       # number of overall (read+write) accesses (Count)
system.cpu.dcache.overallAccesses::total    252825329                       # number of overall (read+write) accesses (Count)
system.cpu.dcache.demandMissRate::cpu.data     0.019046                       # miss rate for demand accesses (Ratio)
system.cpu.dcache.demandMissRate::total      0.019046                       # miss rate for demand accesses (Ratio)
system.cpu.dcache.overallMissRate::cpu.data     0.019046                       # miss rate for overall accesses (Ratio)
system.cpu.dcache.overallMissRate::total     0.019046                       # miss rate for overall accesses (Ratio)
system.cpu.dcache.demandAvgMissLatency::cpu.data 62751.036695                       # average overall miss latency in ticks ((Tick/Count))
system.cpu.dcache.demandAvgMissLatency::total 62751.036695                       # average overall miss latency in ticks ((Tick/Count))
system.cpu.dcache.overallAvgMissLatency::cpu.data 62751.036695                       # average overall miss latency ((Tick/Count))
system.cpu.dcache.overallAvgMissLatency::total 62751.036695                       # average overall miss latency ((Tick/Count))
system.cpu.dcache.blockedCycles::no_mshrs       523880                       # number of cycles access was blocked (Cycle)
system.cpu.dcache.blockedCycles::no_targets         1333                       # number of cycles access was blocked (Cycle)
system.cpu.dcache.blockedCauses::no_mshrs        11947                       # number of times access was blocked (Count)
system.cpu.dcache.blockedCauses::no_targets           16                       # number of times access was blocked (Count)
system.cpu.dcache.avgBlocked::no_mshrs      43.850339                       # average number of cycles each access was blocked ((Cycle/Count))
system.cpu.dcache.avgBlocked::no_targets    83.312500                       # average number of cycles each access was blocked ((Cycle/Count))
system.cpu.dcache.writebacks::writebacks      3323531                       # number of writebacks (Count)
system.cpu.dcache.writebacks::total           3323531                       # number of writebacks (Count)
system.cpu.dcache.demandMshrHits::cpu.data      1052050                       # number of demand (read+write) MSHR hits (Count)
system.cpu.dcache.demandMshrHits::total       1052050                       # number of demand (read+write) MSHR hits (Count)
system.cpu.dcache.overallMshrHits::cpu.data      1052050                       # number of overall MSHR hits (Count)
system.cpu.dcache.overallMshrHits::total      1052050                       # number of overall MSHR hits (Count)
system.cpu.dcache.demandMshrMisses::cpu.data      3763303                       # number of demand (read+write) MSHR misses (Count)
system.cpu.dcache.demandMshrMisses::total      3763303                       # number of demand (read+write) MSHR misses (Count)
system.cpu.dcache.overallMshrMisses::cpu.data      3763303                       # number of overall MSHR misses (Count)
system.cpu.dcache.overallMshrMisses::total      3763303                       # number of overall MSHR misses (Count)
system.cpu.dcache.demandMshrMissLatency::cpu.data 237407071805                       # number of demand (read+write) MSHR miss ticks (Tick)
system.cpu.dcache.demandMshrMissLatency::total 237407071805                       # number of demand (read+write) MSHR miss ticks (Tick)
system.cpu.dcache.overallMshrMissLatency::cpu.data 237407071805                       # number of overall MSHR miss ticks (Tick)
system.cpu.dcache.overallMshrMissLatency::total 237407071805                       # number of overall MSHR miss ticks (Tick)
system.cpu.dcache.demandMshrMissRate::cpu.data     0.014885                       # mshr miss ratio for demand accesses (Ratio)
system.cpu.dcache.demandMshrMissRate::total     0.014885                       # mshr miss ratio for demand accesses (Ratio)
system.cpu.dcache.overallMshrMissRate::cpu.data     0.014885                       # mshr miss ratio for overall accesses (Ratio)
system.cpu.dcache.overallMshrMissRate::total     0.014885                       # mshr miss ratio for overall accesses (Ratio)
system.cpu.dcache.demandAvgMshrMissLatency::cpu.data 63084.761393                       # average overall mshr miss latency ((Tick/Count))
system.cpu.dcache.demandAvgMshrMissLatency::total 63084.761393                       # average overall mshr miss latency ((Tick/Count))
system.cpu.dcache.overallAvgMshrMissLatency::cpu.data 63084.761393                       # average overall mshr miss latency ((Tick/Count))
system.cpu.dcache.overallAvgMshrMissLatency::total 63084.761393                       # average overall mshr miss latency ((Tick/Count))
system.cpu.dcache.replacements                3762789                       # number of replacements (Count)
system.cpu.dcache.ReadReq.hits::cpu.data    187479987                       # number of ReadReq hits (Count)
system.cpu.dcache.ReadReq.hits::total       187479987                       # number of ReadReq hits (Count)
system.cpu.dcache.ReadReq.misses::cpu.data      1582029                       # number of ReadReq misses (Count)
system.cpu.dcache.ReadReq.misses::total       1582029                       # number of ReadReq misses (Count)
system.cpu.dcache.ReadReq.missLatency::cpu.data  95555018000                       # number of ReadReq miss ticks (Tick)
system.cpu.dcache.ReadReq.missLatency::total  95555018000                       # number of ReadReq miss ticks (Tick)
system.cpu.dcache.ReadReq.accesses::cpu.data    189062016                       # number of ReadReq accesses(hits+misses) (Count)
system.cpu.dcache.ReadReq.accesses::total    189062016                       # number of ReadReq accesses(hits+misses) (Count)
system.cpu.dcache.ReadReq.missRate::cpu.data     0.008368                       # miss rate for ReadReq accesses (Ratio)
system.cpu.dcache.ReadReq.missRate::total     0.008368                       # miss rate for ReadReq accesses (Ratio)
system.cpu.dcache.ReadReq.avgMissLatency::cpu.data 60400.294811                       # average ReadReq miss latency ((Tick/Count))
system.cpu.dcache.ReadReq.avgMissLatency::total 60400.294811                       # average ReadReq miss latency ((Tick/Count))
system.cpu.dcache.ReadReq.mshrHits::cpu.data      1050026                       # number of ReadReq MSHR hits (Count)
system.cpu.dcache.ReadReq.mshrHits::total      1050026                       # number of ReadReq MSHR hits (Count)
system.cpu.dcache.ReadReq.mshrMisses::cpu.data       532003                       # number of ReadReq MSHR misses (Count)
system.cpu.dcache.ReadReq.mshrMisses::total       532003                       # number of ReadReq MSHR misses (Count)
system.cpu.dcache.ReadReq.mshrMissLatency::cpu.data  34085319500                       # number of ReadReq MSHR miss ticks (Tick)
system.cpu.dcache.ReadReq.mshrMissLatency::total  34085319500                       # number of ReadReq MSHR miss ticks (Tick)
system.cpu.dcache.ReadReq.mshrMissRate::cpu.data     0.002814                       # mshr miss rate for ReadReq accesses (Ratio)
system.cpu.dcache.ReadReq.mshrMissRate::total     0.002814                       # mshr miss rate for ReadReq accesses (Ratio)
system.cpu.dcache.ReadReq.avgMshrMissLatency::cpu.data 64069.788140                       # average ReadReq mshr miss latency ((Tick/Count))
system.cpu.dcache.ReadReq.avgMshrMissLatency::total 64069.788140                       # average ReadReq mshr miss latency ((Tick/Count))
system.cpu.dcache.WriteReq.hits::cpu.data     60529989                       # number of WriteReq hits (Count)
system.cpu.dcache.WriteReq.hits::total       60529989                       # number of WriteReq hits (Count)
system.cpu.dcache.WriteReq.misses::cpu.data      3233324                       # number of WriteReq misses (Count)
system.cpu.dcache.WriteReq.misses::total      3233324                       # number of WriteReq misses (Count)
system.cpu.dcache.WriteReq.missLatency::cpu.data 206613374804                       # number of WriteReq miss ticks (Tick)
system.cpu.dcache.WriteReq.missLatency::total 206613374804                       # number of WriteReq miss ticks (Tick)
system.cpu.dcache.WriteReq.accesses::cpu.data     63763313                       # number of WriteReq accesses(hits+misses) (Count)
system.cpu.dcache.WriteReq.accesses::total     63763313                       # number of WriteReq accesses(hits+misses) (Count)
system.cpu.dcache.WriteReq.missRate::cpu.data     0.050708                       # miss rate for WriteReq accesses (Ratio)
system.cpu.dcache.WriteReq.missRate::total     0.050708                       # miss rate for WriteReq accesses (Ratio)
system.cpu.dcache.WriteReq.avgMissLatency::cpu.data 63901.228211                       # average WriteReq miss latency ((Tick/Count))
system.cpu.dcache.WriteReq.avgMissLatency::total 63901.228211                       # average WriteReq miss latency ((Tick/Count))
system.cpu.dcache.WriteReq.mshrHits::cpu.data         2024                       # number of WriteReq MSHR hits (Count)
system.cpu.dcache.WriteReq.mshrHits::total         2024                       # number of WriteReq MSHR hits (Count)
system.cpu.dcache.WriteReq.mshrMisses::cpu.data      3231300                       # number of WriteReq MSHR misses (Count)
system.cpu.dcache.WriteReq.mshrMisses::total      3231300                       # number of WriteReq MSHR misses (Count)
system.cpu.dcache.WriteReq.mshrMissLatency::cpu.data 203321752305                       # number of WriteReq MSHR miss ticks (Tick)
system.cpu.dcache.WriteReq.mshrMissLatency::total 203321752305                       # number of WriteReq MSHR miss ticks (Tick)
system.cpu.dcache.WriteReq.mshrMissRate::cpu.data     0.050676                       # mshr miss rate for WriteReq accesses (Ratio)
system.cpu.dcache.WriteReq.mshrMissRate::total     0.050676                       # mshr miss rate for WriteReq accesses (Ratio)
system.cpu.dcache.WriteReq.avgMshrMissLatency::cpu.data 62922.586051                       # average WriteReq mshr miss latency ((Tick/Count))
system.cpu.dcache.WriteReq.avgMshrMissLatency::total 62922.586051                       # average WriteReq mshr miss latency ((Tick/Count))
system.cpu.dcache.power_state.pwrStateResidencyTicks::UNDEFINED 642265113000                       # Cumulative time (in ticks) in various power states (Tick)
system.cpu.dcache.tags.tagsInUse           511.980338                       # Average ticks per tags in use ((Tick/Count))
system.cpu.dcache.tags.totalRefs            251773279                       # Total number of references to valid blocks. (Count)
system.cpu.dcache.tags.sampledRefs            3763301                       # Sample count of references to valid blocks. (Count)
system.cpu.dcache.tags.avgRefs              66.902243                       # Average number of references to valid blocks. ((Count/Count))
system.cpu.dcache.tags.warmupTick              148000                       # The tick when the warmup percentage was hit. (Tick)
system.cpu.dcache.tags.occupancies::cpu.data   511.980338                       # Average occupied blocks per tick, per requestor ((Count/Tick))
system.cpu.dcache.tags.avgOccs::cpu.data     0.999962                       # Average percentage of cache occupancy ((Ratio/Tick))
system.cpu.dcache.tags.avgOccs::total        0.999962                       # Average percentage of cache occupancy ((Ratio/Tick))
system.cpu.dcache.tags.occupanciesTaskId::1024          512                       # Occupied blocks per task id (Count)
system.cpu.dcache.tags.ageTaskId_1024::0           10                       # Occupied blocks per task id, per block age (Count)
system.cpu.dcache.tags.ageTaskId_1024::1           66                       # Occupied blocks per task id, per block age (Count)
system.cpu.dcache.tags.ageTaskId_1024::2          431                       # Occupied blocks per task id, per block age (Count)
system.cpu.dcache.tags.ageTaskId_1024::3            4                       # Occupied blocks per task id, per block age (Count)
system.cpu.dcache.tags.ageTaskId_1024::4            1                       # Occupied blocks per task id, per block age (Count)
system.cpu.dcache.tags.ratioOccsTaskId::1024            1                       # Ratio of occupied blocks and all blocks, per task id (Ratio)
system.cpu.dcache.tags.tagAccesses         2026365933                       # Number of tag accesses (Count)
system.cpu.dcache.tags.dataAccesses        2026365933                       # Number of data accesses (Count)
system.cpu.dcache.tags.power_state.pwrStateResidencyTicks::UNDEFINED 642265113000                       # Cumulative time (in ticks) in various power states (Tick)
system.cpu.decode.idleCycles                151061528                       # Number of cycles decode is idle (Cycle)
system.cpu.decode.blockedCycles             728365519                       # Number of cycles decode is blocked (Cycle)
system.cpu.decode.runCycles                 301301510                       # Number of cycles decode is running (Cycle)
system.cpu.decode.unblockCycles              90770206                       # Number of cycles decode is unblocking (Cycle)
system.cpu.decode.squashCycles               12946427                       # Number of cycles decode is squashing (Cycle)
system.cpu.decode.branchResolved            152644380                       # Number of times decode resolved a branch (Count)
system.cpu.decode.branchMispred                 10269                       # Number of times decode detected a branch misprediction (Count)
system.cpu.decode.decodedInsts             2684755565                       # Number of instructions handled by decode (Count)
system.cpu.decode.squashedInsts                 39920                       # Number of squashed instructions handled by decode (Count)
system.cpu.dtb_walker_cache.blockedCycles::no_mshrs            0                       # number of cycles access was blocked (Cycle)
system.cpu.dtb_walker_cache.blockedCycles::no_targets            0                       # number of cycles access was blocked (Cycle)
system.cpu.dtb_walker_cache.blockedCauses::no_mshrs            0                       # number of times access was blocked (Count)
system.cpu.dtb_walker_cache.blockedCauses::no_targets            0                       # number of times access was blocked (Count)
system.cpu.dtb_walker_cache.avgBlocked::no_mshrs          nan                       # average number of cycles each access was blocked ((Cycle/Count))
system.cpu.dtb_walker_cache.avgBlocked::no_targets          nan                       # average number of cycles each access was blocked ((Cycle/Count))
system.cpu.dtb_walker_cache.replacements            0                       # number of replacements (Count)
system.cpu.dtb_walker_cache.power_state.pwrStateResidencyTicks::UNDEFINED 642265113000                       # Cumulative time (in ticks) in various power states (Tick)
system.cpu.dtb_walker_cache.tags.tagsInUse            0                       # Average ticks per tags in use ((Tick/Count))
system.cpu.dtb_walker_cache.tags.totalRefs            0                       # Total number of references to valid blocks. (Count)
system.cpu.dtb_walker_cache.tags.sampledRefs            0                       # Sample count of references to valid blocks. (Count)
system.cpu.dtb_walker_cache.tags.avgRefs          nan                       # Average number of references to valid blocks. ((Count/Count))
system.cpu.dtb_walker_cache.tags.warmupTick            0                       # The tick when the warmup percentage was hit. (Tick)
system.cpu.dtb_walker_cache.tags.tagAccesses            0                       # Number of tag accesses (Count)
system.cpu.dtb_walker_cache.tags.dataAccesses            0                       # Number of data accesses (Count)
system.cpu.dtb_walker_cache.tags.power_state.pwrStateResidencyTicks::UNDEFINED 642265113000                       # Cumulative time (in ticks) in various power states (Tick)
system.cpu.fetch.icacheStallCycles          233795821                       # Number of cycles fetch is stalled on an Icache miss (Cycle)
system.cpu.fetch.insts                     1956109934                       # Number of instructions fetch has processed (Count)
system.cpu.fetch.branches                   246384713                       # Number of branches that fetch encountered (Count)
system.cpu.fetch.predictedBranches          165044457                       # Number of branches that fetch has predicted taken (Count)
system.cpu.fetch.cycles                    1037683467                       # Number of cycles fetch has run and was not squashing or blocked (Cycle)
system.cpu.fetch.squashCycles                25912716                       # Number of cycles fetch has spent squashing (Cycle)
system.cpu.fetch.miscStallCycles                 1252                       # Number of cycles fetch has spent waiting on interrupts, or bad addresses, or out of MSHRs (Cycle)
system.cpu.fetch.pendingTrapStallCycles          8262                       # Number of stall cycles due to pending traps (Cycle)
system.cpu.fetch.icacheWaitRetryStallCycles           30                       # Number of stall cycles due to full MSHR (Cycle)
system.cpu.fetch.cacheLines                 224882036                       # Number of cache lines fetched (Count)
system.cpu.fetch.icacheSquashes               3108897                       # Number of outstanding Icache misses that were squashed (Count)
system.cpu.fetch.nisnDist::samples         1284445190                       # Number of instructions fetched each cycle (Total) (Count)
system.cpu.fetch.nisnDist::mean              2.264437                       # Number of instructions fetched each cycle (Total) (Count)
system.cpu.fetch.nisnDist::stdev             3.232930                       # Number of instructions fetched each cycle (Total) (Count)
system.cpu.fetch.nisnDist::underflows               0      0.00%      0.00% # Number of instructions fetched each cycle (Total) (Count)
system.cpu.fetch.nisnDist::0                790072651     61.51%     61.51% # Number of instructions fetched each cycle (Total) (Count)
system.cpu.fetch.nisnDist::1                 39366371      3.06%     64.58% # Number of instructions fetched each cycle (Total) (Count)
system.cpu.fetch.nisnDist::2                 23288869      1.81%     66.39% # Number of instructions fetched each cycle (Total) (Count)
system.cpu.fetch.nisnDist::3                 47374874      3.69%     70.08% # Number of instructions fetched each cycle (Total) (Count)
system.cpu.fetch.nisnDist::4                 28833836      2.24%     72.32% # Number of instructions fetched each cycle (Total) (Count)
system.cpu.fetch.nisnDist::5                 58164163      4.53%     76.85% # Number of instructions fetched each cycle (Total) (Count)
system.cpu.fetch.nisnDist::6                 36585961      2.85%     79.70% # Number of instructions fetched each cycle (Total) (Count)
system.cpu.fetch.nisnDist::7                 31263369      2.43%     82.13% # Number of instructions fetched each cycle (Total) (Count)
system.cpu.fetch.nisnDist::8                229495096     17.87%    100.00% # Number of instructions fetched each cycle (Total) (Count)
system.cpu.fetch.nisnDist::overflows                0      0.00%    100.00% # Number of instructions fetched each cycle (Total) (Count)
system.cpu.fetch.nisnDist::min_value                0                       # Number of instructions fetched each cycle (Total) (Count)
system.cpu.fetch.nisnDist::max_value                8                       # Number of instructions fetched each cycle (Total) (Count)
system.cpu.fetch.nisnDist::total           1284445190                       # Number of instructions fetched each cycle (Total) (Count)
system.cpu.fetch.branchRate                  0.191809                       # Number of branch fetches per cycle (Ratio)
system.cpu.fetch.rate                        1.522821                       # Number of inst fetches per cycle ((Count/Cycle))
system.cpu.icache.demandHits::cpu.inst      224880029                       # number of demand (read+write) hits (Count)
system.cpu.icache.demandHits::total         224880029                       # number of demand (read+write) hits (Count)
system.cpu.icache.overallHits::cpu.inst     224880029                       # number of overall hits (Count)
system.cpu.icache.overallHits::total        224880029                       # number of overall hits (Count)
system.cpu.icache.demandMisses::cpu.inst         2007                       # number of demand (read+write) misses (Count)
system.cpu.icache.demandMisses::total            2007                       # number of demand (read+write) misses (Count)
system.cpu.icache.overallMisses::cpu.inst         2007                       # number of overall misses (Count)
system.cpu.icache.overallMisses::total           2007                       # number of overall misses (Count)
system.cpu.icache.demandMissLatency::cpu.inst    120280000                       # number of demand (read+write) miss ticks (Tick)
system.cpu.icache.demandMissLatency::total    120280000                       # number of demand (read+write) miss ticks (Tick)
system.cpu.icache.overallMissLatency::cpu.inst    120280000                       # number of overall miss ticks (Tick)
system.cpu.icache.overallMissLatency::total    120280000                       # number of overall miss ticks (Tick)
system.cpu.icache.demandAccesses::cpu.inst    224882036                       # number of demand (read+write) accesses (Count)
system.cpu.icache.demandAccesses::total     224882036                       # number of demand (read+write) accesses (Count)
system.cpu.icache.overallAccesses::cpu.inst    224882036                       # number of overall (read+write) accesses (Count)
system.cpu.icache.overallAccesses::total    224882036                       # number of overall (read+write) accesses (Count)
system.cpu.icache.demandMissRate::cpu.inst     0.000009                       # miss rate for demand accesses (Ratio)
system.cpu.icache.demandMissRate::total      0.000009                       # miss rate for demand accesses (Ratio)
system.cpu.icache.overallMissRate::cpu.inst     0.000009                       # miss rate for overall accesses (Ratio)
system.cpu.icache.overallMissRate::total     0.000009                       # miss rate for overall accesses (Ratio)
system.cpu.icache.demandAvgMissLatency::cpu.inst 59930.244145                       # average overall miss latency in ticks ((Tick/Count))
system.cpu.icache.demandAvgMissLatency::total 59930.244145                       # average overall miss latency in ticks ((Tick/Count))
system.cpu.icache.overallAvgMissLatency::cpu.inst 59930.244145                       # average overall miss latency ((Tick/Count))
system.cpu.icache.overallAvgMissLatency::total 59930.244145                       # average overall miss latency ((Tick/Count))
system.cpu.icache.blockedCycles::no_mshrs          238                       # number of cycles access was blocked (Cycle)
system.cpu.icache.blockedCycles::no_targets            0                       # number of cycles access was blocked (Cycle)
system.cpu.icache.blockedCauses::no_mshrs            4                       # number of times access was blocked (Count)
system.cpu.icache.blockedCauses::no_targets            0                       # number of times access was blocked (Count)
system.cpu.icache.avgBlocked::no_mshrs      59.500000                       # average number of cycles each access was blocked ((Cycle/Count))
system.cpu.icache.avgBlocked::no_targets          nan                       # average number of cycles each access was blocked ((Cycle/Count))
system.cpu.icache.writebacks::writebacks          982                       # number of writebacks (Count)
system.cpu.icache.writebacks::total               982                       # number of writebacks (Count)
system.cpu.icache.demandMshrHits::cpu.inst          512                       # number of demand (read+write) MSHR hits (Count)
system.cpu.icache.demandMshrHits::total           512                       # number of demand (read+write) MSHR hits (Count)
system.cpu.icache.overallMshrHits::cpu.inst          512                       # number of overall MSHR hits (Count)
system.cpu.icache.overallMshrHits::total          512                       # number of overall MSHR hits (Count)
system.cpu.icache.demandMshrMisses::cpu.inst         1495                       # number of demand (read+write) MSHR misses (Count)
system.cpu.icache.demandMshrMisses::total         1495                       # number of demand (read+write) MSHR misses (Count)
system.cpu.icache.overallMshrMisses::cpu.inst         1495                       # number of overall MSHR misses (Count)
system.cpu.icache.overallMshrMisses::total         1495                       # number of overall MSHR misses (Count)
system.cpu.icache.demandMshrMissLatency::cpu.inst     93535000                       # number of demand (read+write) MSHR miss ticks (Tick)
system.cpu.icache.demandMshrMissLatency::total     93535000                       # number of demand (read+write) MSHR miss ticks (Tick)
system.cpu.icache.overallMshrMissLatency::cpu.inst     93535000                       # number of overall MSHR miss ticks (Tick)
system.cpu.icache.overallMshrMissLatency::total     93535000                       # number of overall MSHR miss ticks (Tick)
system.cpu.icache.demandMshrMissRate::cpu.inst     0.000007                       # mshr miss ratio for demand accesses (Ratio)
system.cpu.icache.demandMshrMissRate::total     0.000007                       # mshr miss ratio for demand accesses (Ratio)
system.cpu.icache.overallMshrMissRate::cpu.inst     0.000007                       # mshr miss ratio for overall accesses (Ratio)
system.cpu.icache.overallMshrMissRate::total     0.000007                       # mshr miss ratio for overall accesses (Ratio)
system.cpu.icache.demandAvgMshrMissLatency::cpu.inst 62565.217391                       # average overall mshr miss latency ((Tick/Count))
system.cpu.icache.demandAvgMshrMissLatency::total 62565.217391                       # average overall mshr miss latency ((Tick/Count))
system.cpu.icache.overallAvgMshrMissLatency::cpu.inst 62565.217391                       # average overall mshr miss latency ((Tick/Count))
system.cpu.icache.overallAvgMshrMissLatency::total 62565.217391                       # average overall mshr miss latency ((Tick/Count))
system.cpu.icache.replacements                    982                       # number of replacements (Count)
system.cpu.icache.ReadReq.hits::cpu.inst    224880029                       # number of ReadReq hits (Count)
system.cpu.icache.ReadReq.hits::total       224880029                       # number of ReadReq hits (Count)
system.cpu.icache.ReadReq.misses::cpu.inst         2007                       # number of ReadReq misses (Count)
system.cpu.icache.ReadReq.misses::total          2007                       # number of ReadReq misses (Count)
system.cpu.icache.ReadReq.missLatency::cpu.inst    120280000                       # number of ReadReq miss ticks (Tick)
system.cpu.icache.ReadReq.missLatency::total    120280000                       # number of ReadReq miss ticks (Tick)
system.cpu.icache.ReadReq.accesses::cpu.inst    224882036                       # number of ReadReq accesses(hits+misses) (Count)
system.cpu.icache.ReadReq.accesses::total    224882036                       # number of ReadReq accesses(hits+misses) (Count)
system.cpu.icache.ReadReq.missRate::cpu.inst     0.000009                       # miss rate for ReadReq accesses (Ratio)
system.cpu.icache.ReadReq.missRate::total     0.000009                       # miss rate for ReadReq accesses (Ratio)
system.cpu.icache.ReadReq.avgMissLatency::cpu.inst 59930.244145                       # average ReadReq miss latency ((Tick/Count))
system.cpu.icache.ReadReq.avgMissLatency::total 59930.244145                       # average ReadReq miss latency ((Tick/Count))
system.cpu.icache.ReadReq.mshrHits::cpu.inst          512                       # number of ReadReq MSHR hits (Count)
system.cpu.icache.ReadReq.mshrHits::total          512                       # number of ReadReq MSHR hits (Count)
system.cpu.icache.ReadReq.mshrMisses::cpu.inst         1495                       # number of ReadReq MSHR misses (Count)
system.cpu.icache.ReadReq.mshrMisses::total         1495                       # number of ReadReq MSHR misses (Count)
system.cpu.icache.ReadReq.mshrMissLatency::cpu.inst     93535000                       # number of ReadReq MSHR miss ticks (Tick)
system.cpu.icache.ReadReq.mshrMissLatency::total     93535000                       # number of ReadReq MSHR miss ticks (Tick)
system.cpu.icache.ReadReq.mshrMissRate::cpu.inst     0.000007                       # mshr miss rate for ReadReq accesses (Ratio)
system.cpu.icache.ReadReq.mshrMissRate::total     0.000007                       # mshr miss rate for ReadReq accesses (Ratio)
system.cpu.icache.ReadReq.avgMshrMissLatency::cpu.inst 62565.217391                       # average ReadReq mshr miss latency ((Tick/Count))
system.cpu.icache.ReadReq.avgMshrMissLatency::total 62565.217391                       # average ReadReq mshr miss latency ((Tick/Count))
system.cpu.icache.power_state.pwrStateResidencyTicks::UNDEFINED 642265113000                       # Cumulative time (in ticks) in various power states (Tick)
system.cpu.icache.tags.tagsInUse           507.387242                       # Average ticks per tags in use ((Tick/Count))
system.cpu.icache.tags.totalRefs            224881524                       # Total number of references to valid blocks. (Count)
system.cpu.icache.tags.sampledRefs               1495                       # Sample count of references to valid blocks. (Count)
system.cpu.icache.tags.avgRefs           150422.424080                       # Average number of references to valid blocks. ((Count/Count))
system.cpu.icache.tags.warmupTick               77000                       # The tick when the warmup percentage was hit. (Tick)
system.cpu.icache.tags.occupancies::cpu.inst   507.387242                       # Average occupied blocks per tick, per requestor ((Count/Tick))
system.cpu.icache.tags.avgOccs::cpu.inst     0.990991                       # Average percentage of cache occupancy ((Ratio/Tick))
system.cpu.icache.tags.avgOccs::total        0.990991                       # Average percentage of cache occupancy ((Ratio/Tick))
system.cpu.icache.tags.occupanciesTaskId::1024          499                       # Occupied blocks per task id (Count)
system.cpu.icache.tags.ageTaskId_1024::4          499                       # Occupied blocks per task id, per block age (Count)
system.cpu.icache.tags.ratioOccsTaskId::1024     0.974609                       # Ratio of occupied blocks and all blocks, per task id (Ratio)
system.cpu.icache.tags.tagAccesses         1799057783                       # Number of tag accesses (Count)
system.cpu.icache.tags.dataAccesses        1799057783                       # Number of data accesses (Count)
system.cpu.icache.tags.power_state.pwrStateResidencyTicks::UNDEFINED 642265113000                       # Cumulative time (in ticks) in various power states (Tick)
system.cpu.iew.idleCycles                           0                       # Number of cycles IEW is idle (Cycle)
system.cpu.iew.squashCycles                  12946427                       # Number of cycles IEW is squashing (Cycle)
system.cpu.iew.blockCycles                  152288199                       # Number of cycles IEW is blocking (Cycle)
system.cpu.iew.unblockCycles                  2950700                       # Number of cycles IEW is unblocking (Cycle)
system.cpu.iew.dispatchedInsts             2526001249                       # Number of instructions dispatched to IQ (Count)
system.cpu.iew.dispSquashedInsts                48542                       # Number of squashed instructions skipped by dispatch (Count)
system.cpu.iew.dispLoadInsts                248523805                       # Number of dispatched load instructions (Count)
system.cpu.iew.dispStoreInsts               126742940                       # Number of dispatched store instructions (Count)
system.cpu.iew.dispNonSpecInsts                   134                       # Number of dispatched non-speculative instructions (Count)
system.cpu.iew.iqFullEvents                    285229                       # Number of times the IQ has become full, causing a stall (Count)
system.cpu.iew.lsqFullEvents                  2495142                       # Number of times the LSQ has become full, causing a stall (Count)
system.cpu.iew.memOrderViolationEvents         106465                       # Number of memory order violations (Count)
system.cpu.iew.predictedTakenIncorrect        7935824                       # Number of branches that were predicted taken incorrectly (Count)
system.cpu.iew.predictedNotTakenIncorrect      5742121                       # Number of branches that were predicted not taken incorrectly (Count)
system.cpu.iew.branchMispredicts             13677945                       # Number of branch mispredicts detected at execute (Count)
system.cpu.iew.instsToCommit               2066360496                       # Cumulative count of insts sent to commit (Count)
system.cpu.iew.writebackCount              2047570286                       # Cumulative count of insts written-back (Count)
system.cpu.iew.producerInst                1682858158                       # Number of instructions producing a value (Count)
system.cpu.iew.consumerInst                3095676983                       # Number of instructions consuming a value (Count)
system.cpu.iew.wbRate                        1.594023                       # Insts written-back per cycle ((Count/Cycle))
system.cpu.iew.wbFanout                      0.543616                       # Average fanout of values written-back ((Count/Count))
system.cpu.interrupts.clk_domain.clock           8000                       # Clock period in ticks (Tick)
system.cpu.itb_walker_cache.blockedCycles::no_mshrs            0                       # number of cycles access was blocked (Cycle)
system.cpu.itb_walker_cache.blockedCycles::no_targets            0                       # number of cycles access was blocked (Cycle)
system.cpu.itb_walker_cache.blockedCauses::no_mshrs            0                       # number of times access was blocked (Count)
system.cpu.itb_walker_cache.blockedCauses::no_targets            0                       # number of times access was blocked (Count)
system.cpu.itb_walker_cache.avgBlocked::no_mshrs          nan                       # average number of cycles each access was blocked ((Cycle/Count))
system.cpu.itb_walker_cache.avgBlocked::no_targets          nan                       # average number of cycles each access was blocked ((Cycle/Count))
system.cpu.itb_walker_cache.replacements            0                       # number of replacements (Count)
system.cpu.itb_walker_cache.power_state.pwrStateResidencyTicks::UNDEFINED 642265113000                       # Cumulative time (in ticks) in various power states (Tick)
system.cpu.itb_walker_cache.tags.tagsInUse            0                       # Average ticks per tags in use ((Tick/Count))
system.cpu.itb_walker_cache.tags.totalRefs            0                       # Total number of references to valid blocks. (Count)
system.cpu.itb_walker_cache.tags.sampledRefs            0                       # Sample count of references to valid blocks. (Count)
system.cpu.itb_walker_cache.tags.avgRefs          nan                       # Average number of references to valid blocks. ((Count/Count))
system.cpu.itb_walker_cache.tags.warmupTick            0                       # The tick when the warmup percentage was hit. (Tick)
system.cpu.itb_walker_cache.tags.tagAccesses            0                       # Number of tag accesses (Count)
system.cpu.itb_walker_cache.tags.dataAccesses            0                       # Number of data accesses (Count)
system.cpu.itb_walker_cache.tags.power_state.pwrStateResidencyTicks::UNDEFINED 642265113000                       # Cumulative time (in ticks) in various power states (Tick)
system.cpu.lsq0.forwLoads                    27594152                       # Number of loads that had data forwarded from stores (Count)
system.cpu.lsq0.squashedLoads               105864154                       # Number of loads squashed (Count)
system.cpu.lsq0.ignoredResponses               116710                       # Number of memory responses ignored because the instruction is squashed (Count)
system.cpu.lsq0.memOrderViolation              106465                       # Number of memory ordering violations (Count)
system.cpu.lsq0.squashedStores               63026050                       # Number of stores squashed (Count)
system.cpu.lsq0.rescheduledLoads                  344                       # Number of loads that were rescheduled (Count)
system.cpu.lsq0.blockedByCache                   7548                       # Number of times an access to memory failed due to the cache being blocked (Count)
system.cpu.lsq0.loadToUse::samples          142659642                       # Distribution of cycle latency between the first time a load is issued and its completion (Unspecified)
system.cpu.lsq0.loadToUse::mean              3.958551                       # Distribution of cycle latency between the first time a load is issued and its completion (Unspecified)
system.cpu.lsq0.loadToUse::stdev            12.421903                       # Distribution of cycle latency between the first time a load is issued and its completion (Unspecified)
system.cpu.lsq0.loadToUse::0-9              141466178     99.16%     99.16% # Distribution of cycle latency between the first time a load is issued and its completion (Unspecified)
system.cpu.lsq0.loadToUse::10-19                65727      0.05%     99.21% # Distribution of cycle latency between the first time a load is issued and its completion (Unspecified)
system.cpu.lsq0.loadToUse::20-29                12220      0.01%     99.22% # Distribution of cycle latency between the first time a load is issued and its completion (Unspecified)
system.cpu.lsq0.loadToUse::30-39                 8476      0.01%     99.22% # Distribution of cycle latency between the first time a load is issued and its completion (Unspecified)
system.cpu.lsq0.loadToUse::40-49                24360      0.02%     99.24% # Distribution of cycle latency between the first time a load is issued and its completion (Unspecified)
system.cpu.lsq0.loadToUse::50-59                13451      0.01%     99.25% # Distribution of cycle latency between the first time a load is issued and its completion (Unspecified)
system.cpu.lsq0.loadToUse::60-69                10889      0.01%     99.26% # Distribution of cycle latency between the first time a load is issued and its completion (Unspecified)
system.cpu.lsq0.loadToUse::70-79                16176      0.01%     99.27% # Distribution of cycle latency between the first time a load is issued and its completion (Unspecified)
[...]
system.mem_ctrls.dram.bwTotal::writebacks    331180971                       # Total bandwidth to/from this memory ((Byte/Second))
system.mem_ctrls.dram.bwTotal::cpu.inst        147976                       # Total bandwidth to/from this memory ((Byte/Second))
system.mem_ctrls.dram.bwTotal::cpu.data     375002875                       # Total bandwidth to/from this memory ((Byte/Second))
system.mem_ctrls.dram.bwTotal::total        706331823                       # Total bandwidth to/from this memory ((Byte/Second))
system.mem_ctrls.dram.readBursts              3747344                       # Number of DRAM read bursts (Count)
system.mem_ctrls.dram.writeBursts             3324473                       # Number of DRAM write bursts (Count)
system.mem_ctrls.dram.perBankRdBursts::0       235168                       # Per bank write bursts (Count)
system.mem_ctrls.dram.perBankRdBursts::1       264066                       # Per bank write bursts (Count)
system.mem_ctrls.dram.perBankRdBursts::2       210785                       # Per bank write bursts (Count)
system.mem_ctrls.dram.perBankRdBursts::3       218528                       # Per bank write bursts (Count)
system.mem_ctrls.dram.perBankRdBursts::4       333103                       # Per bank write bursts (Count)
system.mem_ctrls.dram.perBankRdBursts::5       208269                       # Per bank write bursts (Count)
system.mem_ctrls.dram.perBankRdBursts::6       299035                       # Per bank write bursts (Count)
system.mem_ctrls.dram.perBankRdBursts::7       227215                       # Per bank write bursts (Count)
system.mem_ctrls.dram.perBankRdBursts::8       242093                       # Per bank write bursts (Count)
system.mem_ctrls.dram.perBankRdBursts::9       219495                       # Per bank write bursts (Count)
system.mem_ctrls.dram.perBankRdBursts::10       237926                       # Per bank write bursts (Count)
system.mem_ctrls.dram.perBankRdBursts::11       219173                       # Per bank write bursts (Count)
system.mem_ctrls.dram.perBankRdBursts::12       207833                       # Per bank write bursts (Count)
system.mem_ctrls.dram.perBankRdBursts::13       208810                       # Per bank write bursts (Count)
system.mem_ctrls.dram.perBankRdBursts::14       207843                       # Per bank write bursts (Count)
system.mem_ctrls.dram.perBankRdBursts::15       208002                       # Per bank write bursts (Count)
system.mem_ctrls.dram.perBankWrBursts::0       221977                       # Per bank write bursts (Count)
system.mem_ctrls.dram.perBankWrBursts::1       241514                       # Per bank write bursts (Count)
system.mem_ctrls.dram.perBankWrBursts::2       193477                       # Per bank write bursts (Count)
system.mem_ctrls.dram.perBankWrBursts::3       193472                       # Per bank write bursts (Count)
system.mem_ctrls.dram.perBankWrBursts::4       193527                       # Per bank write bursts (Count)
system.mem_ctrls.dram.perBankWrBursts::5       193578                       # Per bank write bursts (Count)
system.mem_ctrls.dram.perBankWrBursts::6       243608                       # Per bank write bursts (Count)
system.mem_ctrls.dram.perBankWrBursts::7       210504                       # Per bank write bursts (Count)
system.mem_ctrls.dram.perBankWrBursts::8       228395                       # Per bank write bursts (Count)
system.mem_ctrls.dram.perBankWrBursts::9       199738                       # Per bank write bursts (Count)
system.mem_ctrls.dram.perBankWrBursts::10       225732                       # Per bank write bursts (Count)
system.mem_ctrls.dram.perBankWrBursts::11       204533                       # Per bank write bursts (Count)
system.mem_ctrls.dram.perBankWrBursts::12       193547                       # Per bank write bursts (Count)
system.mem_ctrls.dram.perBankWrBursts::13       193598                       # Per bank write bursts (Count)
system.mem_ctrls.dram.perBankWrBursts::14       193559                       # Per bank write bursts (Count)
system.mem_ctrls.dram.perBankWrBursts::15       193714                       # Per bank write bursts (Count)
system.mem_ctrls.dram.totQLat             40172522750                       # Total ticks spent queuing (Tick)
system.mem_ctrls.dram.totBusLat           18736720000                       # Total ticks spent in databus transfers (Tick)
system.mem_ctrls.dram.totMemAccLat       110435222750                       # Total ticks spent from burst creation until serviced by the DRAM (Tick)
system.mem_ctrls.dram.avgQLat                10720.27                       # Average queueing delay per DRAM burst ((Tick/Count))
system.mem_ctrls.dram.avgBusLat               5000.00                       # Average bus latency per DRAM burst ((Tick/Count))
system.mem_ctrls.dram.avgMemAccLat           29470.27                       # Average memory access latency per DRAM burst ((Tick/Count))
system.mem_ctrls.dram.readRowHits             3059859                       # Number of row buffer hits during reads (Count)
system.mem_ctrls.dram.writeRowHits            3091041                       # Number of row buffer hits during writes (Count)
system.mem_ctrls.dram.readRowHitRate            81.65                       # Row buffer hit rate for reads (Ratio)
system.mem_ctrls.dram.writeRowHitRate           92.98                       # Row buffer hit rate for writes (Ratio)
system.mem_ctrls.dram.bytesPerActivate::samples       920917                       # Bytes accessed per row activation (Byte)
system.mem_ctrls.dram.bytesPerActivate::mean   491.462627                       # Bytes accessed per row activation (Byte)
system.mem_ctrls.dram.bytesPerActivate::gmean   339.242600                       # Bytes accessed per row activation (Byte)
system.mem_ctrls.dram.bytesPerActivate::stdev   338.014039                       # Bytes accessed per row activation (Byte)
system.mem_ctrls.dram.bytesPerActivate::0-127       173768     18.87%     18.87% # Bytes accessed per row activation (Byte)
system.mem_ctrls.dram.bytesPerActivate::128-255       110426     11.99%     30.86% # Bytes accessed per row activation (Byte)
system.mem_ctrls.dram.bytesPerActivate::256-383        26691      2.90%     33.76% # Bytes accessed per row activation (Byte)
system.mem_ctrls.dram.bytesPerActivate::384-511        41974      4.56%     38.32% # Bytes accessed per row activation (Byte)
system.mem_ctrls.dram.bytesPerActivate::512-639       319018     34.64%     72.96% # Bytes accessed per row activation (Byte)
system.mem_ctrls.dram.bytesPerActivate::640-767        35498      3.85%     76.81% # Bytes accessed per row activation (Byte)
system.mem_ctrls.dram.bytesPerActivate::768-895        12276      1.33%     78.15% # Bytes accessed per row activation (Byte)
system.mem_ctrls.dram.bytesPerActivate::896-1023        11349      1.23%     79.38% # Bytes accessed per row activation (Byte)
system.mem_ctrls.dram.bytesPerActivate::1024-1151       189917     20.62%    100.00% # Bytes accessed per row activation (Byte)
system.mem_ctrls.dram.bytesPerActivate::total       920917                       # Bytes accessed per row activation (Byte)
system.mem_ctrls.dram.bytesRead             239830016                       # Total bytes read (Byte)
system.mem_ctrls.dram.bytesWritten          212766272                       # Total bytes written (Byte)
system.mem_ctrls.dram.avgRdBW              373.412803                       # Average DRAM read bandwidth in MiBytes/s ((Byte/Second))
system.mem_ctrls.dram.avgWrBW              331.274839                       # Average DRAM write bandwidth in MiBytes/s ((Byte/Second))
system.mem_ctrls.dram.peakBW                 12800.00                       # Theoretical peak bandwidth in MiByte/s ((Byte/Second))
system.mem_ctrls.dram.busUtil                    5.51                       # Data bus utilization in percentage (Ratio)
system.mem_ctrls.dram.busUtilRead                2.92                       # Data bus utilization in percentage for reads (Ratio)
system.mem_ctrls.dram.busUtilWrite               2.59                       # Data bus utilization in percentage for writes (Ratio)
system.mem_ctrls.dram.pageHitRate               86.98                       # Row buffer hit rate, read and write combined (Ratio)
system.mem_ctrls.dram.power_state.pwrStateResidencyTicks::UNDEFINED 642265113000                       # Cumulative time (in ticks) in various power states (Tick)
system.mem_ctrls.dram.rank0.actEnergy      3449348280                       # Energy for activate commands per rank (pJ) (Joule)
system.mem_ctrls.dram.rank0.preEnergy      1833372090                       # Energy for precharge commands per rank (pJ) (Joule)
system.mem_ctrls.dram.rank0.readEnergy    14252646660                       # Energy for read commands per rank (pJ) (Joule)
system.mem_ctrls.dram.rank0.writeEnergy    8830449540                       # Energy for write commands per rank (pJ) (Joule)
system.mem_ctrls.dram.rank0.refreshEnergy 50699809680.000008                       # Energy for refresh commands per rank (pJ) (Joule)
system.mem_ctrls.dram.rank0.actBackEnergy 239521406010                       # Energy for active background per rank (pJ) (Joule)
system.mem_ctrls.dram.rank0.preBackEnergy  44927567040                       # Energy for precharge background per rank (pJ) (Joule)
system.mem_ctrls.dram.rank0.actPowerDownEnergy            0                       # Energy for active power-down per rank (pJ) (Joule)
system.mem_ctrls.dram.rank0.prePowerDownEnergy            0                       # Energy for precharge power-down per rank (pJ) (Joule)
system.mem_ctrls.dram.rank0.selfRefreshEnergy            0                       # Energy for self refresh per rank (pJ) (Joule)
system.mem_ctrls.dram.rank0.totalEnergy  363514599300                       # Total energy per rank (pJ) (Joule)
system.mem_ctrls.dram.rank0.averagePower   565.988393                       # Core power per rank (mW) (Watt)
system.mem_ctrls.dram.rank0.totalIdleTime            0                       # Total Idle time Per DRAM Rank (Tick)
system.mem_ctrls.dram.rank0.pwrStateTime::IDLE 114633960000                       # Time in different power states (Tick)
system.mem_ctrls.dram.rank0.pwrStateTime::REF  21446620000                       # Time in different power states (Tick)
system.mem_ctrls.dram.rank0.pwrStateTime::SREF            0                       # Time in different power states (Tick)
system.mem_ctrls.dram.rank0.pwrStateTime::PRE_PDN            0                       # Time in different power states (Tick)
system.mem_ctrls.dram.rank0.pwrStateTime::ACT 506184533000                       # Time in different power states (Tick)
system.mem_ctrls.dram.rank0.pwrStateTime::ACT_PDN            0                       # Time in different power states (Tick)
system.mem_ctrls.dram.rank1.actEnergy      3125999100                       # Energy for activate commands per rank (pJ) (Joule)
system.mem_ctrls.dram.rank1.preEnergy      1661507925                       # Energy for precharge commands per rank (pJ) (Joule)
system.mem_ctrls.dram.rank1.readEnergy    12503389500                       # Energy for read commands per rank (pJ) (Joule)
system.mem_ctrls.dram.rank1.writeEnergy    8523299520                       # Energy for write commands per rank (pJ) (Joule)
system.mem_ctrls.dram.rank1.refreshEnergy 50699809680.000008                       # Energy for refresh commands per rank (pJ) (Joule)
system.mem_ctrls.dram.rank1.actBackEnergy 230965569210                       # Energy for active background per rank (pJ) (Joule)
system.mem_ctrls.dram.rank1.preBackEnergy  52132482240                       # Energy for precharge background per rank (pJ) (Joule)
system.mem_ctrls.dram.rank1.actPowerDownEnergy            0                       # Energy for active power-down per rank (pJ) (Joule)
system.mem_ctrls.dram.rank1.prePowerDownEnergy            0                       # Energy for precharge power-down per rank (pJ) (Joule)
system.mem_ctrls.dram.rank1.selfRefreshEnergy            0                       # Energy for self refresh per rank (pJ) (Joule)
system.mem_ctrls.dram.rank1.totalEnergy  359612057175                       # Total energy per rank (pJ) (Joule)
system.mem_ctrls.dram.rank1.averagePower   559.912176                       # Core power per rank (mW) (Watt)
system.mem_ctrls.dram.rank1.totalIdleTime            0                       # Total Idle time Per DRAM Rank (Tick)
system.mem_ctrls.dram.rank1.pwrStateTime::IDLE 133464971000                       # Time in different power states (Tick)
system.mem_ctrls.dram.rank1.pwrStateTime::REF  21446620000                       # Time in different power states (Tick)
system.mem_ctrls.dram.rank1.pwrStateTime::SREF            0                       # Time in different power states (Tick)
system.mem_ctrls.dram.rank1.pwrStateTime::PRE_PDN            0                       # Time in different power states (Tick)
system.mem_ctrls.dram.rank1.pwrStateTime::ACT 487353522000                       # Time in different power states (Tick)
system.mem_ctrls.dram.rank1.pwrStateTime::ACT_PDN            0                       # Time in different power states (Tick)
system.mem_ctrls.power_state.pwrStateResidencyTicks::UNDEFINED 642265113000                       # Cumulative time (in ticks) in various power states (Tick)
system.membus.transDist::ReadResp              533483                       # Transaction distribution (Count)
system.membus.transDist::WritebackDirty       3323531                       # Transaction distribution (Count)
system.membus.transDist::WritebackClean           982                       # Transaction distribution (Count)
system.membus.transDist::CleanEvict            439258                       # Transaction distribution (Count)
system.membus.transDist::UpgradeReq                 2                       # Transaction distribution (Count)
system.membus.transDist::ReadExReq            3231313                       # Transaction distribution (Count)
system.membus.transDist::ReadExResp           3231313                       # Transaction distribution (Count)
system.membus.transDist::ReadCleanReq            1495                       # Transaction distribution (Count)
system.membus.transDist::ReadSharedReq         531988                       # Transaction distribution (Count)
system.membus.pktCount_system.cpu.icache.mem_side_port::system.mem_ctrls.port         3962                       # Packet count per connected requestor and responder (Count)
system.membus.pktCount_system.cpu.icache.mem_side_port::total         3962                       # Packet count per connected requestor and responder (Count)
system.membus.pktCount_system.cpu.dcache.mem_side_port::system.mem_ctrls.port     11289393                       # Packet count per connected requestor and responder (Count)
system.membus.pktCount_system.cpu.dcache.mem_side_port::total     11289393                       # Packet count per connected requestor and responder (Count)
system.membus.pktCount::total                11293355                       # Packet count per connected requestor and responder (Count)
system.membus.pktSize_system.cpu.icache.mem_side_port::system.mem_ctrls.port       157888                       # Cumulative packet size per connected requestor and responder (Byte)
system.membus.pktSize_system.cpu.icache.mem_side_port::total       157888                       # Cumulative packet size per connected requestor and responder (Byte)
system.membus.pktSize_system.cpu.dcache.mem_side_port::system.mem_ctrls.port    453557248                       # Cumulative packet size per connected requestor and responder (Byte)
system.membus.pktSize_system.cpu.dcache.mem_side_port::total    453557248                       # Cumulative packet size per connected requestor and responder (Byte)
system.membus.pktSize::total                453715136                       # Cumulative packet size per connected requestor and responder (Byte)
system.membus.snoops                               10                       # Total snoops (Count)
system.membus.snoopTraffic                        640                       # Total snoop traffic (Byte)
system.membus.snoopFanout::samples            3764798                       # Request fanout histogram (Count)
system.membus.snoopFanout::mean              0.001701                       # Request fanout histogram (Count)
system.membus.snoopFanout::stdev             0.041205                       # Request fanout histogram (Count)
system.membus.snoopFanout::underflows               0      0.00%      0.00% # Request fanout histogram (Count)
system.membus.snoopFanout::0                  3758395     99.83%     99.83% # Request fanout histogram (Count)
system.membus.snoopFanout::1                     6403      0.17%    100.00% # Request fanout histogram (Count)
system.membus.snoopFanout::2                        0      0.00%    100.00% # Request fanout histogram (Count)
system.membus.snoopFanout::3                        0      0.00%    100.00% # Request fanout histogram (Count)
system.membus.snoopFanout::4                        0      0.00%    100.00% # Request fanout histogram (Count)
system.membus.snoopFanout::overflows                0      0.00%    100.00% # Request fanout histogram (Count)
system.membus.snoopFanout::min_value                0                       # Request fanout histogram (Count)
system.membus.snoopFanout::max_value                1                       # Request fanout histogram (Count)
system.membus.snoopFanout::total              3764798                       # Request fanout histogram (Count)
system.membus.power_state.pwrStateResidencyTicks::UNDEFINED 642265113000                       # Cumulative time (in ticks) in various power states (Tick)
system.membus.reqLayer2.occupancy         21348775500                       # Layer occupancy (ticks) (Tick)
system.membus.reqLayer2.utilization               0.0                       # Layer utilization (Ratio)
system.membus.respLayer1.occupancy            7942250                       # Layer occupancy (ticks) (Tick)
system.membus.respLayer1.utilization              0.0                       # Layer utilization (Ratio)
system.membus.respLayer2.occupancy        20021349000                       # Layer occupancy (ticks) (Tick)
system.membus.respLayer2.utilization              0.0                       # Layer utilization (Ratio)
system.membus.snoop_filter.totRequests        7528569                       # Total number of requests made to the snoop filter. (Count)
system.membus.snoop_filter.hitSingleRequests      3763776                       # Number of requests hitting in the snoop filter with a single holder of the requested data. (Count)
system.membus.snoop_filter.hitMultiRequests         6398                       # Number of requests hitting in the snoop filter with multiple (>1) holders of the requested data. (Count)
system.membus.snoop_filter.totSnoops                0                       # Total number of snoops made to the snoop filter. (Count)
system.membus.snoop_filter.hitSingleSnoops            0                       # Number of snoops hitting in the snoop filter with a single holder of the requested data. (Count)
system.membus.snoop_filter.hitMultiSnoops            0                       # Number of snoops hitting in the snoop filter with multiple (>1) holders of the requested data. (Count)
system.voltage_domain.voltage                       1                       # Voltage in Volts (Volt)
system.workload.inst.arm                            0                       # number of arm instructions executed (Count)
system.workload.inst.quiesce                        0                       # number of quiesce instructions executed (Count)

---------- End Simulation Statistics   ----------
