
---------- Begin Simulation Statistics ----------
simSeconds                                   2.549108                       # Number of seconds simulated (Second)
simTicks                                 2549108130500                       # Number of ticks simulated (Tick)
finalTick                                2549108130500                       # Number of ticks from beginning of simulation (restored from checkpoints and never reset) (Tick)
simFreq                                  1000000000000                       # The number of ticks per simulated second ((Tick/Second))
hostSeconds                                  16069.16                       # Real time elapsed on the host (Second)
hostTickRate                                158633517                       # The number of ticks simulated per host second (ticks/s) ((Tick/Second))
hostMemory                                    8734504                       # Number of bytes of host memory used (Byte)
simInsts                                   1000000000                       # Number of instructions simulated (Count)
simOps                                     1537791858                       # Number of ops (including micro ops) simulated (Count)
hostInstRate                                    62231                       # Simulator instruction rate (inst/s) ((Count/Second))
hostOpRate                                      95698                       # Simulator op (including micro ops) rate (op/s) ((Count/Second))
system.clk_domain.clock                          1000                       # Clock period in ticks (Tick)
system.cpu.numCycles                       5098216262                       # Number of cpu cycles simulated (Cycle)
system.cpu.numWorkItemsStarted                      0                       # Number of work items this cpu started (Count)
system.cpu.numWorkItemsCompleted                    0                       # Number of work items this cpu completed (Count)
system.cpu.instsAdded                      1547748460                       # Number of instructions added to the IQ (excludes non-spec) (Count)
system.cpu.nonSpecInstsAdded                      228                       # Number of non-speculative instructions added to the IQ (Count)
system.cpu.instsIssued                     1547670641                       # Number of instructions issued (Count)
system.cpu.squashedInstsIssued                   2740                       # Number of squashed instructions issued (Count)
system.cpu.squashedInstsExamined              9956745                       # Number of squashed instructions iterated over during squash; mainly for profiling (Count)
system.cpu.squashedOperandsExamined          14611822                       # Number of squashed operands that are examined and possibly removed from graph (Count)
system.cpu.squashedNonSpecRemoved                 156                       # Number of squashed non-spec instructions that were removed (Count)
system.cpu.numIssuedDist::samples          5098143491                       # Number of insts issued each cycle (Count)
system.cpu.numIssuedDist::mean               0.303575                       # Number of insts issued each cycle (Count)
system.cpu.numIssuedDist::stdev              1.113585                       # Number of insts issued each cycle (Count)
system.cpu.numIssuedDist::underflows                0      0.00%      0.00% # Number of insts issued each cycle (Count)
system.cpu.numIssuedDist::0                4572938486     89.70%     89.70% # Number of insts issued each cycle (Count)
system.cpu.numIssuedDist::1                 188700032      3.70%     93.40% # Number of insts issued each cycle (Count)
system.cpu.numIssuedDist::2                  86312214      1.69%     95.09% # Number of insts issued each cycle (Count)
system.cpu.numIssuedDist::3                  77725265      1.52%     96.62% # Number of insts issued each cycle (Count)
system.cpu.numIssuedDist::4                  45764927      0.90%     97.51% # Number of insts issued each cycle (Count)
system.cpu.numIssuedDist::5                  47590895      0.93%     98.45% # Number of insts issued each cycle (Count)
system.cpu.numIssuedDist::6                  42159062      0.83%     99.28% # Number of insts issued each cycle (Count)
system.cpu.numIssuedDist::7                  16419049      0.32%     99.60% # Number of insts issued each cycle (Count)
system.cpu.numIssuedDist::8                  20533561      0.40%    100.00% # Number of insts issued each cycle (Count)
system.cpu.numIssuedDist::overflows                 0      0.00%    100.00% # Number of insts issued each cycle (Count)
system.cpu.numIssuedDist::min_value                 0                       # Number of insts issued each cycle (Count)
system.cpu.numIssuedDist::max_value                 8                       # Number of insts issued each cycle (Count)
system.cpu.numIssuedDist::total            5098143491                       # Number of insts issued each cycle (Count)
system.cpu.statFuBusy::No_OpClass                   0      0.00%      0.00% # attempts to use FU when none available (Count)
system.cpu.statFuBusy::IntAlu                 5270037     35.97%     35.97% # attempts to use FU when none available (Count)
system.cpu.statFuBusy::IntMult                      0      0.00%     35.97% # attempts to use FU when none available (Count)
system.cpu.statFuBusy::IntDiv                       0      0.00%     35.97% # attempts to use FU when none available (Count)
system.cpu.statFuBusy::FloatAdd                     0      0.00%     35.97% # attempts to use FU when none available (Count)
system.cpu.statFuBusy::FloatCmp                     0      0.00%     35.97% # attempts to use FU when none available (Count)
system.cpu.statFuBusy::FloatCvt                     0      0.00%     35.97% # attempts to use FU when none available (Count)
system.cpu.statFuBusy::FloatMult                    0      0.00%     35.97% # attempts to use FU when none available (Count)
system.cpu.statFuBusy::FloatMultAcc                 0      0.00%     35.97% # attempts to use FU when none available (Count)
system.cpu.statFuBusy::FloatDiv                     0      0.00%     35.97% # attempts to use FU when none available (Count)
system.cpu.statFuBusy::FloatMisc                    0      0.00%     35.97% # attempts to use FU when none available (Count)
system.cpu.statFuBusy::FloatSqrt                    0      0.00%     35.97% # attempts to use FU when none available (Count)
system.cpu.statFuBusy::SimdAdd                      0      0.00%     35.97% # attempts to use FU when none available (Count)
system.cpu.statFuBusy::SimdAddAcc                   0      0.00%     35.97% # attempts to use FU when none available (Count)
system.cpu.statFuBusy::SimdAlu                    596      0.00%     35.98% # attempts to use FU when none available (Count)
system.cpu.statFuBusy::SimdCmp                      0      0.00%     35.98% # attempts to use FU when none available (Count)
system.cpu.statFuBusy::SimdCvt                     10      0.00%     35.98% # attempts to use FU when none available (Count)
system.cpu.statFuBusy::SimdMisc                     7      0.00%     35.98% # attempts to use FU when none available (Count)
system.cpu.statFuBusy::SimdMult                     0      0.00%     35.98% # attempts to use FU when none available (Count)
system.cpu.statFuBusy::SimdMultAcc                  0      0.00%     35.98% # attempts to use FU when none available (Count)
system.cpu.statFuBusy::SimdShift                    0      0.00%     35.98% # attempts to use FU when none available (Count)
system.cpu.statFuBusy::SimdShiftAcc                 0      0.00%     35.98% # attempts to use FU when none available (Count)
system.cpu.statFuBusy::SimdDiv                      0      0.00%     35.98% # attempts to use FU when none available (Count)
system.cpu.statFuBusy::SimdSqrt                     0      0.00%     35.98% # attempts to use FU when none available (Count)
system.cpu.statFuBusy::SimdFloatAdd           1800040     12.29%     48.26% # attempts to use FU when none available (Count)
system.cpu.statFuBusy::SimdFloatAlu                 0      0.00%     48.26% # attempts to use FU when none available (Count)
system.cpu.statFuBusy::SimdFloatCmp                 0      0.00%     48.26% # attempts to use FU when none available (Count)
system.cpu.statFuBusy::SimdFloatCvt                 0      0.00%     48.26% # attempts to use FU when none available (Count)
system.cpu.statFuBusy::SimdFloatDiv                 0      0.00%     48.26% # attempts to use FU when none available (Count)
system.cpu.statFuBusy::SimdFloatMisc                0      0.00%     48.26% # attempts to use FU when none available (Count)
system.cpu.statFuBusy::SimdFloatMult          5410874     36.93%     85.20% # attempts to use FU when none available (Count)
system.cpu.statFuBusy::SimdFloatMultAcc             0      0.00%     85.20% # attempts to use FU when none available (Count)
system.cpu.statFuBusy::SimdFloatSqrt                0      0.00%     85.20% # attempts to use FU when none available (Count)
system.cpu.statFuBusy::SimdReduceAdd                0      0.00%     85.20% # attempts to use FU when none available (Count)
system.cpu.statFuBusy::SimdReduceAlu                0      0.00%     85.20% # attempts to use FU when none available (Count)
system.cpu.statFuBusy::SimdReduceCmp                0      0.00%     85.20% # attempts to use FU when none available (Count)
system.cpu.statFuBusy::SimdFloatReduceAdd            0      0.00%     85.20% # attempts to use FU when none available (Count)
system.cpu.statFuBusy::SimdFloatReduceCmp            0      0.00%     85.20% # attempts to use FU when none available (Count)
system.cpu.statFuBusy::SimdAes                      0      0.00%     85.20% # attempts to use FU when none available (Count)
system.cpu.statFuBusy::SimdAesMix                   0      0.00%     85.20% # attempts to use FU when none available (Count)
system.cpu.statFuBusy::SimdSha1Hash                 0      0.00%     85.20% # attempts to use FU when none available (Count)
system.cpu.statFuBusy::SimdSha1Hash2                0      0.00%     85.20% # attempts to use FU when none available (Count)
system.cpu.statFuBusy::SimdSha256Hash               0      0.00%     85.20% # attempts to use FU when none available (Count)
system.cpu.statFuBusy::SimdSha256Hash2              0      0.00%     85.20% # attempts to use FU when none available (Count)
system.cpu.statFuBusy::SimdShaSigma2                0      0.00%     85.20% # attempts to use FU when none available (Count)
system.cpu.statFuBusy::SimdShaSigma3                0      0.00%     85.20% # attempts to use FU when none available (Count)
system.cpu.statFuBusy::SimdPredAlu                  0      0.00%     85.20% # attempts to use FU when none available (Count)
system.cpu.statFuBusy::MemRead                   1189      0.01%     85.21% # attempts to use FU when none available (Count)
system.cpu.statFuBusy::MemWrite                105870      0.72%     85.93% # attempts to use FU when none available (Count)
system.cpu.statFuBusy::FloatMemRead           1497857     10.22%     96.15% # attempts to use FU when none available (Count)
system.cpu.statFuBusy::FloatMemWrite           563766      3.85%    100.00% # attempts to use FU when none available (Count)
system.cpu.statFuBusy::IprAccess                    0      0.00%    100.00% # attempts to use FU when none available (Count)
system.cpu.statFuBusy::InstPrefetch                 0      0.00%    100.00% # attempts to use FU when none available (Count)
system.cpu.statIssuedInstType_0::No_OpClass        81963      0.01%      0.01% # Number of instructions issued per FU type, per thread (Count)
system.cpu.statIssuedInstType_0::IntAlu     550179040     35.55%     35.55% # Number of instructions issued per FU type, per thread (Count)
system.cpu.statIssuedInstType_0::IntMult       120055      0.01%     35.56% # Number of instructions issued per FU type, per thread (Count)
system.cpu.statIssuedInstType_0::IntDiv          1864      0.00%     35.56% # Number of instructions issued per FU type, per thread (Count)
system.cpu.statIssuedInstType_0::FloatAdd    135063271      8.73%     44.29% # Number of instructions issued per FU type, per thread (Count)
system.cpu.statIssuedInstType_0::FloatCmp            0      0.00%     44.29% # Number of instructions issued per FU type, per thread (Count)
system.cpu.statIssuedInstType_0::FloatCvt          148      0.00%     44.29% # Number of instructions issued per FU type, per thread (Count)
system.cpu.statIssuedInstType_0::FloatMult            0      0.00%     44.29% # Number of instructions issued per FU type, per thread (Count)
system.cpu.statIssuedInstType_0::FloatMultAcc            0      0.00%     44.29% # Number of instructions issued per FU type, per thread (Count)
system.cpu.statIssuedInstType_0::FloatDiv            0      0.00%     44.29% # Number of instructions issued per FU type, per thread (Count)
system.cpu.statIssuedInstType_0::FloatMisc            0      0.00%     44.29% # Number of instructions issued per FU type, per thread (Count)
system.cpu.statIssuedInstType_0::FloatSqrt            0      0.00%     44.29% # Number of instructions issued per FU type, per thread (Count)
system.cpu.statIssuedInstType_0::SimdAdd            0      0.00%     44.29% # Number of instructions issued per FU type, per thread (Count)
system.cpu.statIssuedInstType_0::SimdAddAcc            0      0.00%     44.29% # Number of instructions issued per FU type, per thread (Count)
system.cpu.statIssuedInstType_0::SimdAlu      7310582      0.47%     44.76% # Number of instructions issued per FU type, per thread (Count)
system.cpu.statIssuedInstType_0::SimdCmp            0      0.00%     44.76% # Number of instructions issued per FU type, per thread (Count)
system.cpu.statIssuedInstType_0::SimdCvt          159      0.00%     44.76% # Number of instructions issued per FU type, per thread (Count)
system.cpu.statIssuedInstType_0::SimdMisc        40202      0.00%     44.76% # Number of instructions issued per FU type, per thread (Count)
system.cpu.statIssuedInstType_0::SimdMult            0      0.00%     44.76% # Number of instructions issued per FU type, per thread (Count)
system.cpu.statIssuedInstType_0::SimdMultAcc            0      0.00%     44.76% # Number of instructions issued per FU type, per thread (Count)
system.cpu.statIssuedInstType_0::SimdShift            0      0.00%     44.76% # Number of instructions issued per FU type, per thread (Count)
system.cpu.statIssuedInstType_0::SimdShiftAcc            0      0.00%     44.76% # Number of instructions issued per FU type, per thread (Count)
system.cpu.statIssuedInstType_0::SimdDiv            0      0.00%     44.76% # Number of instructions issued per FU type, per thread (Count)
system.cpu.statIssuedInstType_0::SimdSqrt            0      0.00%     44.76% # Number of instructions issued per FU type, per thread (Count)
system.cpu.statIssuedInstType_0::SimdFloatAdd    303342889     19.60%     64.36% # Number of instructions issued per FU type, per thread (Count)
system.cpu.statIssuedInstType_0::SimdFloatAlu            0      0.00%     64.36% # Number of instructions issued per FU type, per thread (Count)
system.cpu.statIssuedInstType_0::SimdFloatCmp      5013338      0.32%     64.69% # Number of instructions issued per FU type, per thread (Count)
system.cpu.statIssuedInstType_0::SimdFloatCvt        40003      0.00%     64.69% # Number of instructions issued per FU type, per thread (Count)
system.cpu.statIssuedInstType_0::SimdFloatDiv      6759541      0.44%     65.13% # Number of instructions issued per FU type, per thread (Count)
system.cpu.statIssuedInstType_0::SimdFloatMisc            0      0.00%     65.13% # Number of instructions issued per FU type, per thread (Count)
system.cpu.statIssuedInstType_0::SimdFloatMult    146701431      9.48%     74.61% # Number of instructions issued per FU type, per thread (Count)
system.cpu.statIssuedInstType_0::SimdFloatMultAcc            0      0.00%     74.61% # Number of instructions issued per FU type, per thread (Count)
system.cpu.statIssuedInstType_0::SimdFloatSqrt            3      0.00%     74.61% # Number of instructions issued per FU type, per thread (Count)
system.cpu.statIssuedInstType_0::SimdReduceAdd            0      0.00%     74.61% # Number of instructions issued per FU type, per thread (Count)
system.cpu.statIssuedInstType_0::SimdReduceAlu            0      0.00%     74.61% # Number of instructions issued per FU type, per thread (Count)
system.cpu.statIssuedInstType_0::SimdReduceCmp            0      0.00%     74.61% # Number of instructions issued per FU type, per thread (Count)
system.cpu.statIssuedInstType_0::SimdFloatReduceAdd            0      0.00%     74.61% # Number of instructions issued per FU type, per thread (Count)
system.cpu.statIssuedInstType_0::SimdFloatReduceCmp            0      0.00%     74.61% # Number of instructions issued per FU type, per thread (Count)
system.cpu.statIssuedInstType_0::SimdAes            0      0.00%     74.61% # Number of instructions issued per FU type, per thread (Count)
system.cpu.statIssuedInstType_0::SimdAesMix            0      0.00%     74.61% # Number of instructions issued per FU type, per thread (Count)
system.cpu.statIssuedInstType_0::SimdSha1Hash            0      0.00%     74.61% # Number of instructions issued per FU type, per thread (Count)
system.cpu.statIssuedInstType_0::SimdSha1Hash2            0      0.00%     74.61% # Number of instructions issued per FU type, per thread (Count)
system.cpu.statIssuedInstType_0::SimdSha256Hash            0      0.00%     74.61% # Number of instructions issued per FU type, per thread (Count)
system.cpu.statIssuedInstType_0::SimdSha256Hash2            0      0.00%     74.61% # Number of instructions issued per FU type, per thread (Count)
system.cpu.statIssuedInstType_0::SimdShaSigma2            0      0.00%     74.61% # Number of instructions issued per FU type, per thread (Count)
system.cpu.statIssuedInstType_0::SimdShaSigma3            0      0.00%     74.61% # Number of instructions issued per FU type, per thread (Count)
system.cpu.statIssuedInstType_0::SimdPredAlu            0      0.00%     74.61% # Number of instructions issued per FU type, per thread (Count)
system.cpu.statIssuedInstType_0::MemRead     56250862      3.63%     78.24% # Number of instructions issued per FU type, per thread (Count)
system.cpu.statIssuedInstType_0::MemWrite     26786765      1.73%     79.97% # Number of instructions issued per FU type, per thread (Count)
system.cpu.statIssuedInstType_0::FloatMemRead    177629813     11.48%     91.45% # Number of instructions issued per FU type, per thread (Count)
system.cpu.statIssuedInstType_0::FloatMemWrite    132348712      8.55%    100.00% # Number of instructions issued per FU type, per thread (Count)
system.cpu.statIssuedInstType_0::IprAccess            0      0.00%    100.00% # Number of instructions issued per FU type, per thread (Count)
system.cpu.statIssuedInstType_0::InstPrefetch            0      0.00%    100.00% # Number of instructions issued per FU type, per thread (Count)
system.cpu.statIssuedInstType_0::total     1547670641                       # Number of instructions issued per FU type, per thread (Count)
system.cpu.issueRate                         0.303571                       # Inst issue rate ((Count/Cycle))
system.cpu.fuBusy                            14650246                       # FU busy when requested (Count)
system.cpu.fuBusyRate                        0.009466                       # FU busy rate (busy events/executed inst) ((Count/Count))
system.cpu.intInstQueueReads               6089405803                       # Number of integer instruction queue reads (Count)
system.cpu.intInstQueueWrites               496507697                       # Number of integer instruction queue writes (Count)
system.cpu.intInstQueueWakeupAccesses       492370338                       # Number of integer instruction queue wakeup accesses (Count)
system.cpu.fpInstQueueReads                2118731956                       # Number of floating instruction queue reads (Count)
system.cpu.fpInstQueueWrites               1061202155                       # Number of floating instruction queue writes (Count)
system.cpu.fpInstQueueWakeupAccesses       1051264674                       # Number of floating instruction queue wakeup accesses (Count)
system.cpu.vecInstQueueReads                        0                       # Number of vector instruction queue reads (Count)
system.cpu.vecInstQueueWrites                       0                       # Number of vector instruction queue writes (Count)
system.cpu.vecInstQueueWakeupAccesses               0                       # Number of vector instruction queue wakeup accesses (Count)
system.cpu.intAluAccesses                   498236413                       # Number of integer alu accesses (Count)
system.cpu.fpAluAccesses                   1064002511                       # Number of floating point alu accesses (Count)
system.cpu.vecAluAccesses                           0                       # Number of vector alu accesses (Count)
system.cpu.numInsts                        1547464784                       # Number of executed instructions (Count)
system.cpu.numLoadInsts                     233849910                       # Number of load instructions executed (Count)
system.cpu.numSquashedInsts                    205857                       # Number of squashed instructions skipped in execute (Count)
system.cpu.numSwp                                   0                       # Number of swp insts executed (Count)
system.cpu.numNop                                   0                       # Number of nop insts executed (Count)
system.cpu.numRefs                          392975896                       # Number of memory reference insts executed (Count)
system.cpu.numBranches                       66771979                       # Number of branches executed (Count)
system.cpu.numStoreInsts                    159125986                       # Number of stores executed (Count)
system.cpu.numRate                           0.303531                       # Inst execution rate ((Count/Cycle))
system.cpu.timesIdled                             805                       # Number of times that the entire CPU went into an idle state and unscheduled itself (Count)
system.cpu.idleCycles                           72771                       # Total number of cycles that the CPU has spent unscheduled due to idling (Cycle)
system.cpu.committedInsts                  1000000000                       # Number of Instructions Simulated (Count)
system.cpu.committedOps                    1537791858                       # Number of Ops (including micro ops) Simulated (Count)
system.cpu.cpi                               5.098216                       # CPI: Cycles Per Instruction ((Cycle/Count))
system.cpu.totalCpi                          5.098216                       # CPI: Total CPI of All Threads ((Cycle/Count))
system.cpu.ipc                               0.196147                       # IPC: Instructions Per Cycle ((Count/Cycle))
system.cpu.totalIpc                          0.196147                       # IPC: Total IPC of All Threads ((Count/Cycle))
system.cpu.intRegfileReads                  792134050                       # Number of integer regfile reads (Count)
system.cpu.intRegfileWrites                 355352634                       # Number of integer regfile writes (Count)
system.cpu.fpRegfileReads                  1848820771                       # Number of floating regfile reads (Count)
system.cpu.fpRegfileWrites                  920802651                       # Number of floating regfile writes (Count)
system.cpu.ccRegfileReads                   319347556                       # number of cc regfile reads (Count)
system.cpu.ccRegfileWrites                  162964426                       # number of cc regfile writes (Count)
system.cpu.miscRegfileReads                 554091222                       # number of misc regfile reads (Count)
system.cpu.miscRegfileWrites                       72                       # number of misc regfile writes (Count)
system.cpu.MemDepUnit__0.insertedLoads      232796367                       # Number of loads inserted to the mem dependence unit. (Count)
system.cpu.MemDepUnit__0.insertedStores     159232931                       # Number of stores inserted to the mem dependence unit. (Count)
system.cpu.MemDepUnit__0.conflictingLoads     28901767                       # Number of conflicting loads. (Count)
system.cpu.MemDepUnit__0.conflictingStores      9386717                       # Number of conflicting stores. (Count)
system.cpu.MemDepUnit__1.insertedLoads              0                       # Number of loads inserted to the mem dependence unit. (Count)
system.cpu.MemDepUnit__1.insertedStores             0                       # Number of stores inserted to the mem dependence unit. (Count)
system.cpu.MemDepUnit__1.conflictingLoads            0                       # Number of conflicting loads. (Count)
system.cpu.MemDepUnit__1.conflictingStores            0                       # Number of conflicting stores. (Count)
system.cpu.MemDepUnit__2.insertedLoads              0                       # Number of loads inserted to the mem dependence unit. (Count)
system.cpu.MemDepUnit__2.insertedStores             0                       # Number of stores inserted to the mem dependence unit. (Count)
system.cpu.MemDepUnit__2.conflictingLoads            0                       # Number of conflicting loads. (Count)
system.cpu.MemDepUnit__2.conflictingStores            0                       # Number of conflicting stores. (Count)
system.cpu.MemDepUnit__3.insertedLoads              0                       # Number of loads inserted to the mem dependence unit. (Count)
system.cpu.MemDepUnit__3.insertedStores             0                       # Number of stores inserted to the mem dependence unit. (Count)
system.cpu.MemDepUnit__3.conflictingLoads            0                       # Number of conflicting loads. (Count)
system.cpu.MemDepUnit__3.conflictingStores            0                       # Number of conflicting stores. (Count)
system.cpu.branchPred.lookups                67232174                       # Number of BP lookups (Count)
system.cpu.branchPred.condPredicted          55020699                       # Number of conditional branches predicted (Count)
system.cpu.branchPred.condIncorrect            115049                       # Number of conditional branches incorrect (Count)
system.cpu.branchPred.BTBLookups             27163268                       # Number of BTB lookups (Count)
system.cpu.branchPred.BTBHits                27160741                       # Number of BTB hits (Count)
system.cpu.branchPred.BTBHitRatio            0.999907                       # BTB Hit Ratio (Ratio)
system.cpu.branchPred.RASUsed                 2633203                       # Number of times the RAS was used to get a target. (Count)
system.cpu.branchPred.RASIncorrect                 10                       # Number of incorrect RAS predictions. (Count)
system.cpu.branchPred.indirectLookups         2664138                       # Number of indirect predictor lookups. (Count)
system.cpu.branchPred.indirectHits            2662814                       # Number of indirect target hits. (Count)
system.cpu.branchPred.indirectMisses             1324                       # Number of indirect misses. (Count)
system.cpu.branchPred.indirectMispredicted          248                       # Number of mispredicted indirect branches. (Count)
system.cpu.commit.commitSquashedInsts         9855911                       # The number of squashed insts skipped by commit (Count)
system.cpu.commit.commitNonSpecStalls              72                       # The number of times commit has been forced to stall to communicate backwards (Count)
system.cpu.commit.branchMispredicts            115061                       # The number of times a branch was mispredicted (Count)
system.cpu.commit.numCommittedDist::samples   5096747945                       # Number of insts commited each cycle (Count)
system.cpu.commit.numCommittedDist::mean     0.301720                       # Number of insts commited each cycle (Count)
system.cpu.commit.numCommittedDist::stdev     1.228364                       # Number of insts commited each cycle (Count)
system.cpu.commit.numCommittedDist::underflows            0      0.00%      0.00% # Number of insts commited each cycle (Count)
system.cpu.commit.numCommittedDist::0      4601816948     90.29%     90.29% # Number of insts commited each cycle (Count)
system.cpu.commit.numCommittedDist::1       229429251      4.50%     94.79% # Number of insts commited each cycle (Count)
system.cpu.commit.numCommittedDist::2        57733793      1.13%     95.92% # Number of insts commited each cycle (Count)
system.cpu.commit.numCommittedDist::3        34747636      0.68%     96.61% # Number of insts commited each cycle (Count)
system.cpu.commit.numCommittedDist::4        46484058      0.91%     97.52% # Number of insts commited each cycle (Count)
system.cpu.commit.numCommittedDist::5        27062026      0.53%     98.05% # Number of insts commited each cycle (Count)
system.cpu.commit.numCommittedDist::6        10217361      0.20%     98.25% # Number of insts commited each cycle (Count)
system.cpu.commit.numCommittedDist::7         7953391      0.16%     98.40% # Number of insts commited each cycle (Count)
system.cpu.commit.numCommittedDist::8        81303481      1.60%    100.00% # Number of insts commited each cycle (Count)
system.cpu.commit.numCommittedDist::overflows            0      0.00%    100.00% # Number of insts commited each cycle (Count)
system.cpu.commit.numCommittedDist::min_value            0                       # Number of insts commited each cycle (Count)
system.cpu.commit.numCommittedDist::max_value            8                       # Number of insts commited each cycle (Count)
system.cpu.commit.numCommittedDist::total   5096747945                       # Number of insts commited each cycle (Count)
system.cpu.commit.instsCommitted           1000000000                       # Number of instructions committed (Count)
system.cpu.commit.opsCommitted             1537791858                       # Number of ops (including micro ops) committed (Count)
system.cpu.commit.memRefs                   387183973                       # Number of memory references committed (Count)
system.cpu.commit.loads                     231478086                       # Number of loads committed (Count)
system.cpu.commit.amos                              0                       # Number of atomic instructions committed (Count)
system.cpu.commit.membars                           0                       # Number of memory barriers committed (Count)
system.cpu.commit.branches                   66513036                       # Number of branches committed (Count)
system.cpu.commit.vectorInstructions                0                       # Number of committed Vector instructions. (Count)
system.cpu.commit.floating                 1048241319                       # Number of committed floating point instructions. (Count)
system.cpu.commit.integer                   794122707                       # Number of committed integer instructions. (Count)
system.cpu.commit.functionCalls               2628827                       # Number of function calls committed. (Count)
system.cpu.commit.committedInstType_0::No_OpClass        80018      0.01%      0.01% # Class of committed instruction (Count)
system.cpu.commit.committedInstType_0::IntAlu    547199989     35.58%     35.59% # Class of committed instruction (Count)
system.cpu.commit.committedInstType_0::IntMult       120028      0.01%     35.60% # Class of committed instruction (Count)
system.cpu.commit.committedInstType_0::IntDiv         1709      0.00%     35.60% # Class of committed instruction (Count)
system.cpu.commit.committedInstType_0::FloatAdd    134043577      8.72%     44.31% # Class of committed instruction (Count)
system.cpu.commit.committedInstType_0::FloatCmp            0      0.00%     44.31% # Class of committed instruction (Count)
system.cpu.commit.committedInstType_0::FloatCvt          128      0.00%     44.31% # Class of committed instruction (Count)
system.cpu.commit.committedInstType_0::FloatMult            0      0.00%     44.31% # Class of committed instruction (Count)
system.cpu.commit.committedInstType_0::FloatMultAcc            0      0.00%     44.31% # Class of committed instruction (Count)
system.cpu.commit.committedInstType_0::FloatDiv            0      0.00%     44.31% # Class of committed instruction (Count)
system.cpu.commit.committedInstType_0::FloatMisc            0      0.00%     44.31% # Class of committed instruction (Count)
system.cpu.commit.committedInstType_0::FloatSqrt            0      0.00%     44.31% # Class of committed instruction (Count)
system.cpu.commit.committedInstType_0::SimdAdd            0      0.00%     44.31% # Class of committed instruction (Count)
system.cpu.commit.committedInstType_0::SimdAddAcc            0      0.00%     44.31% # Class of committed instruction (Count)
system.cpu.commit.committedInstType_0::SimdAlu      7310528      0.48%     44.79% # Class of committed instruction (Count)
system.cpu.commit.committedInstType_0::SimdCmp            0      0.00%     44.79% # Class of committed instruction (Count)
system.cpu.commit.committedInstType_0::SimdCvt          128      0.00%     44.79% # Class of committed instruction (Count)
system.cpu.commit.committedInstType_0::SimdMisc        40156      0.00%     44.79% # Class of committed instruction (Count)
system.cpu.commit.committedInstType_0::SimdMult            0      0.00%     44.79% # Class of committed instruction (Count)
system.cpu.commit.committedInstType_0::SimdMultAcc            0      0.00%     44.79% # Class of committed instruction (Count)
system.cpu.commit.committedInstType_0::SimdShift            0      0.00%     44.79% # Class of committed instruction (Count)
system.cpu.commit.committedInstType_0::SimdShiftAcc            0      0.00%     44.79% # Class of committed instruction (Count)
system.cpu.commit.committedInstType_0::SimdDiv            0      0.00%     44.79% # Class of committed instruction (Count)
system.cpu.commit.committedInstType_0::SimdSqrt            0      0.00%     44.79% # Class of committed instruction (Count)
system.cpu.commit.committedInstType_0::SimdFloatAdd    303297393     19.72%     64.51% # Class of committed instruction (Count)
system.cpu.commit.committedInstType_0::SimdFloatAlu            0      0.00%     64.51% # Class of committed instruction (Count)
system.cpu.commit.committedInstType_0::SimdFloatCmp      5013338      0.33%     64.84% # Class of committed instruction (Count)
system.cpu.commit.committedInstType_0::SimdFloatCvt        40002      0.00%     64.84% # Class of committed instruction (Count)
system.cpu.commit.committedInstType_0::SimdFloatDiv      6759541      0.44%     65.28% # Class of committed instruction (Count)
system.cpu.commit.committedInstType_0::SimdFloatMisc            0      0.00%     65.28% # Class of committed instruction (Count)
system.cpu.commit.committedInstType_0::SimdFloatMult    146701348      9.54%     74.82% # Class of committed instruction (Count)
system.cpu.commit.committedInstType_0::SimdFloatMultAcc            0      0.00%     74.82% # Class of committed instruction (Count)
system.cpu.commit.committedInstType_0::SimdFloatSqrt            2      0.00%     74.82% # Class of committed instruction (Count)
system.cpu.commit.committedInstType_0::SimdReduceAdd            0      0.00%     74.82% # Class of committed instruction (Count)
system.cpu.commit.committedInstType_0::SimdReduceAlu            0      0.00%     74.82% # Class of committed instruction (Count)
system.cpu.commit.committedInstType_0::SimdReduceCmp            0      0.00%     74.82% # Class of committed instruction (Count)
system.cpu.commit.committedInstType_0::SimdFloatReduceAdd            0      0.00%     74.82% # Class of committed instruction (Count)
system.cpu.commit.committedInstType_0::SimdFloatReduceCmp            0      0.00%     74.82% # Class of committed instruction (Count)
system.cpu.commit.committedInstType_0::SimdAes            0      0.00%     74.82% # Class of committed instruction (Count)
system.cpu.commit.committedInstType_0::SimdAesMix            0      0.00%     74.82% # Class of committed instruction (Count)
system.cpu.commit.committedInstType_0::SimdSha1Hash            0      0.00%     74.82% # Class of committed instruction (Count)
system.cpu.commit.committedInstType_0::SimdSha1Hash2            0      0.00%     74.82% # Class of committed instruction (Count)
system.cpu.commit.committedInstType_0::SimdSha256Hash            0      0.00%     74.82% # Class of committed instruction (Count)
system.cpu.commit.committedInstType_0::SimdSha256Hash2            0      0.00%     74.82% # Class of committed instruction (Count)
system.cpu.commit.committedInstType_0::SimdShaSigma2            0      0.00%     74.82% # Class of committed instruction (Count)
system.cpu.commit.committedInstType_0::SimdShaSigma3            0      0.00%     74.82% # Class of committed instruction (Count)
system.cpu.commit.committedInstType_0::SimdPredAlu            0      0.00%     74.82% # Class of committed instruction (Count)
system.cpu.commit.committedInstType_0::MemRead     56036545      3.64%     78.47% # Class of committed instruction (Count)
system.cpu.commit.committedInstType_0::MemWrite     26532672      1.73%     80.19% # Class of committed instruction (Count)
system.cpu.commit.committedInstType_0::FloatMemRead    175441541     11.41%     91.60% # Class of committed instruction (Count)
system.cpu.commit.committedInstType_0::FloatMemWrite    129173215      8.40%    100.00% # Class of committed instruction (Count)
system.cpu.commit.committedInstType_0::IprAccess            0      0.00%    100.00% # Class of committed instruction (Count)
system.cpu.commit.committedInstType_0::InstPrefetch            0      0.00%    100.00% # Class of committed instruction (Count)
system.cpu.commit.committedInstType_0::total   1537791858                       # Class of committed instruction (Count)
system.cpu.commit.commitEligibleSamples      81303481                       # number cycles where commit BW limit reached (Cycle)
system.cpu.dcache.demandHits::cpu.data      254323572                       # number of demand (read+write) hits (Count)
system.cpu.dcache.demandHits::total         254323572                       # number of demand (read+write) hits (Count)
system.cpu.dcache.overallHits::cpu.data     254323572                       # number of overall hits (Count)
system.cpu.dcache.overallHits::total        254323572                       # number of overall hits (Count)
system.cpu.dcache.demandMisses::cpu.data     86656384                       # number of demand (read+write) misses (Count)
system.cpu.dcache.demandMisses::total        86656384                       # number of demand (read+write) misses (Count)
system.cpu.dcache.overallMisses::cpu.data     86656384                       # number of overall misses (Count)
system.cpu.dcache.overallMisses::total       86656384                       # number of overall misses (Count)
system.cpu.dcache.demandMissLatency::cpu.data 5932673524300                       # number of demand (read+write) miss ticks (Tick)
system.cpu.dcache.demandMissLatency::total 5932673524300                       # number of demand (read+write) miss ticks (Tick)
system.cpu.dcache.overallMissLatency::cpu.data 5932673524300                       # number of overall miss ticks (Tick)
system.cpu.dcache.overallMissLatency::total 5932673524300                       # number of overall miss ticks (Tick)
system.cpu.dcache.demandAccesses::cpu.data    340979956                       # number of demand (read+write) accesses (Count)
system.cpu.dcache.demandAccesses::total     340979956                       # number of demand (read+write) accesses (Count)
system.cpu.dcache.overallAccesses::cpu.data    340979956                       # number of overall (read+write) accesses (Count)
system.cpu.dcache.overallAccesses::total    340979956                       # number of overall (read+write) accesses (Count)
system.cpu.dcache.demandMissRate::cpu.data     0.254139                       # miss rate for demand accesses (Ratio)
system.cpu.dcache.demandMissRate::total      0.254139                       # miss rate for demand accesses (Ratio)
system.cpu.dcache.overallMissRate::cpu.data     0.254139                       # miss rate for overall accesses (Ratio)
system.cpu.dcache.overallMissRate::total     0.254139                       # miss rate for overall accesses (Ratio)
system.cpu.dcache.demandAvgMissLatency::cpu.data 68462.048039                       # average overall miss latency in ticks ((Tick/Count))
system.cpu.dcache.demandAvgMissLatency::total 68462.048039                       # average overall miss latency in ticks ((Tick/Count))
system.cpu.dcache.overallAvgMissLatency::cpu.data 68462.048039                       # average overall miss latency ((Tick/Count))
system.cpu.dcache.overallAvgMissLatency::total 68462.048039                       # average overall miss latency ((Tick/Count))
system.cpu.dcache.blockedCycles::no_mshrs    115645789                       # number of cycles access was blocked (Cycle)
system.cpu.dcache.blockedCycles::no_targets       529236                       # number of cycles access was blocked (Cycle)
system.cpu.dcache.blockedCauses::no_mshrs      1176838                       # number of times access was blocked (Count)
system.cpu.dcache.blockedCauses::no_targets         9139                       # number of times access was blocked (Count)
system.cpu.dcache.avgBlocked::no_mshrs      98.268231                       # average number of cycles each access was blocked ((Cycle/Count))
system.cpu.dcache.avgBlocked::no_targets    57.909618                       # average number of cycles each access was blocked ((Cycle/Count))
system.cpu.dcache.writebacks::writebacks     34419622                       # number of writebacks (Count)
system.cpu.dcache.writebacks::total          34419622                       # number of writebacks (Count)
system.cpu.dcache.demandMshrHits::cpu.data     43866743                       # number of demand (read+write) MSHR hits (Count)
system.cpu.dcache.demandMshrHits::total      43866743                       # number of demand (read+write) MSHR hits (Count)
system.cpu.dcache.overallMshrHits::cpu.data     43866743                       # number of overall MSHR hits (Count)
system.cpu.dcache.overallMshrHits::total     43866743                       # number of overall MSHR hits (Count)
system.cpu.dcache.demandMshrMisses::cpu.data     42789641                       # number of demand (read+write) MSHR misses (Count)
system.cpu.dcache.demandMshrMisses::total     42789641                       # number of demand (read+write) MSHR misses (Count)
system.cpu.dcache.overallMshrMisses::cpu.data     42789641                       # number of overall MSHR misses (Count)
system.cpu.dcache.overallMshrMisses::total     42789641                       # number of overall MSHR misses (Count)
system.cpu.dcache.demandMshrMissLatency::cpu.data 2859542558300                       # number of demand (read+write) MSHR miss ticks (Tick)
system.cpu.dcache.demandMshrMissLatency::total 2859542558300                       # number of demand (read+write) MSHR miss ticks (Tick)
system.cpu.dcache.overallMshrMissLatency::cpu.data 2859542558300                       # number of overall MSHR miss ticks (Tick)
system.cpu.dcache.overallMshrMissLatency::total 2859542558300                       # number of overall MSHR miss ticks (Tick)
system.cpu.dcache.demandMshrMissRate::cpu.data     0.125490                       # mshr miss ratio for demand accesses (Ratio)
system.cpu.dcache.demandMshrMissRate::total     0.125490                       # mshr miss ratio for demand accesses (Ratio)
system.cpu.dcache.overallMshrMissRate::cpu.data     0.125490                       # mshr miss ratio for overall accesses (Ratio)
system.cpu.dcache.overallMshrMissRate::total     0.125490                       # mshr miss ratio for overall accesses (Ratio)
system.cpu.dcache.demandAvgMshrMissLatency::cpu.data 66827.916558                       # average overall mshr miss latency ((Tick/Count))
system.cpu.dcache.demandAvgMshrMissLatency::total 66827.916558                       # average overall mshr miss latency ((Tick/Count))
system.cpu.dcache.overallAvgMshrMissLatency::cpu.data 66827.916558                       # average overall mshr miss latency ((Tick/Count))
system.cpu.dcache.overallAvgMshrMissLatency::total 66827.916558                       # average overall mshr miss latency ((Tick/Count))
system.cpu.dcache.replacements               42789124                       # number of replacements (Count)
system.cpu.dcache.ReadReq.hits::cpu.data    132847650                       # number of ReadReq hits (Count)
system.cpu.dcache.ReadReq.hits::total       132847650                       # number of ReadReq hits (Count)
system.cpu.dcache.ReadReq.misses::cpu.data     52426431                       # number of ReadReq misses (Count)
system.cpu.dcache.ReadReq.misses::total      52426431                       # number of ReadReq misses (Count)
system.cpu.dcache.ReadReq.missLatency::cpu.data 3615709696500                       # number of ReadReq miss ticks (Tick)
system.cpu.dcache.ReadReq.missLatency::total 3615709696500                       # number of ReadReq miss ticks (Tick)
system.cpu.dcache.ReadReq.accesses::cpu.data    185274081                       # number of ReadReq accesses(hits+misses) (Count)
system.cpu.dcache.ReadReq.accesses::total    185274081                       # number of ReadReq accesses(hits+misses) (Count)
system.cpu.dcache.ReadReq.missRate::cpu.data     0.282967                       # miss rate for ReadReq accesses (Ratio)
system.cpu.dcache.ReadReq.missRate::total     0.282967                       # miss rate for ReadReq accesses (Ratio)
system.cpu.dcache.ReadReq.avgMissLatency::cpu.data 68967.305757                       # average ReadReq miss latency ((Tick/Count))
system.cpu.dcache.ReadReq.avgMissLatency::total 68967.305757                       # average ReadReq miss latency ((Tick/Count))
system.cpu.dcache.ReadReq.mshrHits::cpu.data     43866708                       # number of ReadReq MSHR hits (Count)
system.cpu.dcache.ReadReq.mshrHits::total     43866708                       # number of ReadReq MSHR hits (Count)
system.cpu.dcache.ReadReq.mshrMisses::cpu.data      8559723                       # number of ReadReq MSHR misses (Count)
system.cpu.dcache.ReadReq.mshrMisses::total      8559723                       # number of ReadReq MSHR misses (Count)
system.cpu.dcache.ReadReq.mshrMissLatency::cpu.data 576809626000                       # number of ReadReq MSHR miss ticks (Tick)
system.cpu.dcache.ReadReq.mshrMissLatency::total 576809626000                       # number of ReadReq MSHR miss ticks (Tick)
system.cpu.dcache.ReadReq.mshrMissRate::cpu.data     0.046200                       # mshr miss rate for ReadReq accesses (Ratio)
system.cpu.dcache.ReadReq.mshrMissRate::total     0.046200                       # mshr miss rate for ReadReq accesses (Ratio)
system.cpu.dcache.ReadReq.avgMshrMissLatency::cpu.data 67386.482717                       # average ReadReq mshr miss latency ((Tick/Count))
system.cpu.dcache.ReadReq.avgMshrMissLatency::total 67386.482717                       # average ReadReq mshr miss latency ((Tick/Count))
system.cpu.dcache.WriteReq.hits::cpu.data    121475922                       # number of WriteReq hits (Count)
system.cpu.dcache.WriteReq.hits::total      121475922                       # number of WriteReq hits (Count)
system.cpu.dcache.WriteReq.misses::cpu.data     34229953                       # number of WriteReq misses (Count)
system.cpu.dcache.WriteReq.misses::total     34229953                       # number of WriteReq misses (Count)
system.cpu.dcache.WriteReq.missLatency::cpu.data 2316963827800                       # number of WriteReq miss ticks (Tick)
system.cpu.dcache.WriteReq.missLatency::total 2316963827800                       # number of WriteReq miss ticks (Tick)
system.cpu.dcache.WriteReq.accesses::cpu.data    155705875                       # number of WriteReq accesses(hits+misses) (Count)
system.cpu.dcache.WriteReq.accesses::total    155705875                       # number of WriteReq accesses(hits+misses) (Count)
system.cpu.dcache.WriteReq.missRate::cpu.data     0.219837                       # miss rate for WriteReq accesses (Ratio)
system.cpu.dcache.WriteReq.missRate::total     0.219837                       # miss rate for WriteReq accesses (Ratio)
system.cpu.dcache.WriteReq.avgMissLatency::cpu.data 67688.197755                       # average WriteReq miss latency ((Tick/Count))
system.cpu.dcache.WriteReq.avgMissLatency::total 67688.197755                       # average WriteReq miss latency ((Tick/Count))
system.cpu.dcache.WriteReq.mshrHits::cpu.data           35                       # number of WriteReq MSHR hits (Count)
system.cpu.dcache.WriteReq.mshrHits::total           35                       # number of WriteReq MSHR hits (Count)
system.cpu.dcache.WriteReq.mshrMisses::cpu.data     34229918                       # number of WriteReq MSHR misses (Count)
system.cpu.dcache.WriteReq.mshrMisses::total     34229918                       # number of WriteReq MSHR misses (Count)
system.cpu.dcache.WriteReq.mshrMissLatency::cpu.data 2282732932300                       # number of WriteReq MSHR miss ticks (Tick)
system.cpu.dcache.WriteReq.mshrMissLatency::total 2282732932300                       # number of WriteReq MSHR miss ticks (Tick)
system.cpu.dcache.WriteReq.mshrMissRate::cpu.data     0.219837                       # mshr miss rate for WriteReq accesses (Ratio)
system.cpu.dcache.WriteReq.mshrMissRate::total     0.219837                       # mshr miss rate for WriteReq accesses (Ratio)
system.cpu.dcache.WriteReq.avgMshrMissLatency::cpu.data 66688.238409                       # average WriteReq mshr miss latency ((Tick/Count))
system.cpu.dcache.WriteReq.avgMshrMissLatency::total 66688.238409                       # average WriteReq mshr miss latency ((Tick/Count))
system.cpu.dcache.power_state.pwrStateResidencyTicks::UNDEFINED 2549108130500                       # Cumulative time (in ticks) in various power states (Tick)
system.cpu.dcache.tags.tagsInUse           511.994639                       # Average ticks per tags in use ((Tick/Count))
system.cpu.dcache.tags.totalRefs            297113210                       # Total number of references to valid blocks. (Count)
system.cpu.dcache.tags.sampledRefs           42789636                       # Sample count of references to valid blocks. (Count)
system.cpu.dcache.tags.avgRefs               6.943579                       # Average number of references to valid blocks. ((Count/Count))
system.cpu.dcache.tags.warmupTick              148000                       # The tick when the warmup percentage was hit. (Tick)
system.cpu.dcache.tags.occupancies::cpu.data   511.994639                       # Average occupied blocks per tick, per requestor ((Count/Tick))
system.cpu.dcache.tags.avgOccs::cpu.data     0.999990                       # Average percentage of cache occupancy ((Ratio/Tick))
system.cpu.dcache.tags.avgOccs::total        0.999990                       # Average percentage of cache occupancy ((Ratio/Tick))
system.cpu.dcache.tags.occupanciesTaskId::1024          512                       # Occupied blocks per task id (Count)
system.cpu.dcache.tags.ageTaskId_1024::0          172                       # Occupied blocks per task id, per block age (Count)
system.cpu.dcache.tags.ageTaskId_1024::1          334                       # Occupied blocks per task id, per block age (Count)
system.cpu.dcache.tags.ageTaskId_1024::3            6                       # Occupied blocks per task id, per block age (Count)
system.cpu.dcache.tags.ratioOccsTaskId::1024            1                       # Ratio of occupied blocks and all blocks, per task id (Ratio)
system.cpu.dcache.tags.tagAccesses         2770629284                       # Number of tag accesses (Count)
system.cpu.dcache.tags.dataAccesses        2770629284                       # Number of data accesses (Count)
system.cpu.dcache.tags.power_state.pwrStateResidencyTicks::UNDEFINED 2549108130500                       # Cumulative time (in ticks) in various power states (Tick)
system.cpu.decode.idleCycles                 55326683                       # Number of cycles decode is idle (Cycle)
system.cpu.decode.blockedCycles            4829963541                       # Number of cycles decode is blocked (Cycle)
system.cpu.decode.runCycles                 139698430                       # Number of cycles decode is running (Cycle)
system.cpu.decode.unblockCycles              72931297                       # Number of cycles decode is unblocking (Cycle)
system.cpu.decode.squashCycles                 223540                       # Number of cycles decode is squashing (Cycle)
system.cpu.decode.branchResolved             26972125                       # Number of times decode resolved a branch (Count)
system.cpu.decode.branchMispred                   687                       # Number of times decode detected a branch misprediction (Count)
system.cpu.decode.decodedInsts             1549486095                       # Number of instructions handled by decode (Count)
system.cpu.decode.squashedInsts                  3322                       # Number of squashed instructions handled by decode (Count)
system.cpu.dtb_walker_cache.blockedCycles::no_mshrs            0                       # number of cycles access was blocked (Cycle)
system.cpu.dtb_walker_cache.blockedCycles::no_targets            0                       # number of cycles access was blocked (Cycle)
system.cpu.dtb_walker_cache.blockedCauses::no_mshrs            0                       # number of times access was blocked (Count)
system.cpu.dtb_walker_cache.blockedCauses::no_targets            0                       # number of times access was blocked (Count)
system.cpu.dtb_walker_cache.avgBlocked::no_mshrs          nan                       # average number of cycles each access was blocked ((Cycle/Count))
system.cpu.dtb_walker_cache.avgBlocked::no_targets          nan                       # average number of cycles each access was blocked ((Cycle/Count))
system.cpu.dtb_walker_cache.replacements            0                       # number of replacements (Count)
system.cpu.dtb_walker_cache.power_state.pwrStateResidencyTicks::UNDEFINED 2549108130500                       # Cumulative time (in ticks) in various power states (Tick)
system.cpu.dtb_walker_cache.tags.tagsInUse            0                       # Average ticks per tags in use ((Tick/Count))
system.cpu.dtb_walker_cache.tags.totalRefs            0                       # Total number of references to valid blocks. (Count)
system.cpu.dtb_walker_cache.tags.sampledRefs            0                       # Sample count of references to valid blocks. (Count)
system.cpu.dtb_walker_cache.tags.avgRefs          nan                       # Average number of references to valid blocks. ((Count/Count))
system.cpu.dtb_walker_cache.tags.warmupTick            0                       # The tick when the warmup percentage was hit. (Tick)
system.cpu.dtb_walker_cache.tags.tagAccesses            0                       # Number of tag accesses (Count)
system.cpu.dtb_walker_cache.tags.dataAccesses            0                       # Number of data accesses (Count)
system.cpu.dtb_walker_cache.tags.power_state.pwrStateResidencyTicks::UNDEFINED 2549108130500                       # Cumulative time (in ticks) in various power states (Tick)
system.cpu.fetch.icacheStallCycles          102307301                       # Number of cycles fetch is stalled on an Icache miss (Cycle)
system.cpu.fetch.insts                     1012897226                       # Number of instructions fetch has processed (Count)
system.cpu.fetch.branches                    67232174                       # Number of branches that fetch encountered (Count)
system.cpu.fetch.predictedBranches           32456758                       # Number of branches that fetch has predicted taken (Count)
system.cpu.fetch.cycles                    4995606500                       # Number of cycles fetch has run and was not squashing or blocked (Cycle)
system.cpu.fetch.squashCycles                  448416                       # Number of cycles fetch has spent squashing (Cycle)
system.cpu.fetch.miscStallCycles                  717                       # Number of cycles fetch has spent waiting on interrupts, or bad addresses, or out of MSHRs (Cycle)
system.cpu.fetch.pendingTrapStallCycles          4765                       # Number of stall cycles due to pending traps (Cycle)
system.cpu.fetch.cacheLines                 102161659                       # Number of cache lines fetched (Count)
system.cpu.fetch.icacheSquashes                 36749                       # Number of outstanding Icache misses that were squashed (Count)
system.cpu.fetch.nisnDist::samples         5098143491                       # Number of instructions fetched each cycle (Total) (Count)
system.cpu.fetch.nisnDist::mean              0.305355                       # Number of instructions fetched each cycle (Total) (Count)
system.cpu.fetch.nisnDist::stdev             1.432753                       # Number of instructions fetched each cycle (Total) (Count)
system.cpu.fetch.nisnDist::underflows               0      0.00%      0.00% # Number of instructions fetched each cycle (Total) (Count)
system.cpu.fetch.nisnDist::0               4838615451     94.91%     94.91% # Number of instructions fetched each cycle (Total) (Count)
system.cpu.fetch.nisnDist::1                 16655940      0.33%     95.24% # Number of instructions fetched each cycle (Total) (Count)
system.cpu.fetch.nisnDist::2                 22238857      0.44%     95.67% # Number of instructions fetched each cycle (Total) (Count)
system.cpu.fetch.nisnDist::3                 21996152      0.43%     96.10% # Number of instructions fetched each cycle (Total) (Count)
system.cpu.fetch.nisnDist::4                 14559087      0.29%     96.39% # Number of instructions fetched each cycle (Total) (Count)
system.cpu.fetch.nisnDist::5                 19637700      0.39%     96.77% # Number of instructions fetched each cycle (Total) (Count)
system.cpu.fetch.nisnDist::6                 11980757      0.24%     97.01% # Number of instructions fetched each cycle (Total) (Count)
system.cpu.fetch.nisnDist::7                 18363082      0.36%     97.37% # Number of instructions fetched each cycle (Total) (Count)
system.cpu.fetch.nisnDist::8                134096465      2.63%    100.00% # Number of instructions fetched each cycle (Total) (Count)
system.cpu.fetch.nisnDist::overflows                0      0.00%    100.00% # Number of instructions fetched each cycle (Total) (Count)
system.cpu.fetch.nisnDist::min_value                0                       # Number of instructions fetched each cycle (Total) (Count)
system.cpu.fetch.nisnDist::max_value                8                       # Number of instructions fetched each cycle (Total) (Count)
system.cpu.fetch.nisnDist::total           5098143491                       # Number of instructions fetched each cycle (Total) (Count)
system.cpu.fetch.branchRate                  0.013187                       # Number of branch fetches per cycle (Ratio)
system.cpu.fetch.rate                        0.198677                       # Number of inst fetches per cycle ((Count/Cycle))
system.cpu.icache.demandHits::cpu.inst      102159982                       # number of demand (read+write) hits (Count)
system.cpu.icache.demandHits::total         102159982                       # number of demand (read+write) hits (Count)
system.cpu.icache.overallHits::cpu.inst     102159982                       # number of overall hits (Count)
system.cpu.icache.overallHits::total        102159982                       # number of overall hits (Count)
system.cpu.icache.demandMisses::cpu.inst         1677                       # number of demand (read+write) misses (Count)
system.cpu.icache.demandMisses::total            1677                       # number of demand (read+write) misses (Count)
system.cpu.icache.overallMisses::cpu.inst         1677                       # number of overall misses (Count)
system.cpu.icache.overallMisses::total           1677                       # number of overall misses (Count)
system.cpu.icache.demandMissLatency::cpu.inst     99959500                       # number of demand (read+write) miss ticks (Tick)
system.cpu.icache.demandMissLatency::total     99959500                       # number of demand (read+write) miss ticks (Tick)
system.cpu.icache.overallMissLatency::cpu.inst     99959500                       # number of overall miss ticks (Tick)
system.cpu.icache.overallMissLatency::total     99959500                       # number of overall miss ticks (Tick)
system.cpu.icache.demandAccesses::cpu.inst    102161659                       # number of demand (read+write) accesses (Count)
system.cpu.icache.demandAccesses::total     102161659                       # number of demand (read+write) accesses (Count)
system.cpu.icache.overallAccesses::cpu.inst    102161659                       # number of overall (read+write) accesses (Count)
system.cpu.icache.overallAccesses::total    102161659                       # number of overall (read+write) accesses (Count)
system.cpu.icache.demandMissRate::cpu.inst     0.000016                       # miss rate for demand accesses (Ratio)
system.cpu.icache.demandMissRate::total      0.000016                       # miss rate for demand accesses (Ratio)
system.cpu.icache.overallMissRate::cpu.inst     0.000016                       # miss rate for overall accesses (Ratio)
system.cpu.icache.overallMissRate::total     0.000016                       # miss rate for overall accesses (Ratio)
system.cpu.icache.demandAvgMissLatency::cpu.inst 59606.141920                       # average overall miss latency in ticks ((Tick/Count))
system.cpu.icache.demandAvgMissLatency::total 59606.141920                       # average overall miss latency in ticks ((Tick/Count))
system.cpu.icache.overallAvgMissLatency::cpu.inst 59606.141920                       # average overall miss latency ((Tick/Count))
system.cpu.icache.overallAvgMissLatency::total 59606.141920                       # average overall miss latency ((Tick/Count))
system.cpu.icache.blockedCycles::no_mshrs          176                       # number of cycles access was blocked (Cycle)
system.cpu.icache.blockedCycles::no_targets            0                       # number of cycles access was blocked (Cycle)
system.cpu.icache.blockedCauses::no_mshrs            2                       # number of times access was blocked (Count)
system.cpu.icache.blockedCauses::no_targets            0                       # number of times access was blocked (Count)
system.cpu.icache.avgBlocked::no_mshrs             88                       # average number of cycles each access was blocked ((Cycle/Count))
system.cpu.icache.avgBlocked::no_targets          nan                       # average number of cycles each access was blocked ((Cycle/Count))
system.cpu.icache.writebacks::writebacks          731                       # number of writebacks (Count)
system.cpu.icache.writebacks::total               731                       # number of writebacks (Count)
system.cpu.icache.demandMshrHits::cpu.inst          432                       # number of demand (read+write) MSHR hits (Count)
system.cpu.icache.demandMshrHits::total           432                       # number of demand (read+write) MSHR hits (Count)
system.cpu.icache.overallMshrHits::cpu.inst          432                       # number of overall MSHR hits (Count)
system.cpu.icache.overallMshrHits::total          432                       # number of overall MSHR hits (Count)
system.cpu.icache.demandMshrMisses::cpu.inst         1245                       # number of demand (read+write) MSHR misses (Count)
system.cpu.icache.demandMshrMisses::total         1245                       # number of demand (read+write) MSHR misses (Count)
system.cpu.icache.overallMshrMisses::cpu.inst         1245                       # number of overall MSHR misses (Count)
system.cpu.icache.overallMshrMisses::total         1245                       # number of overall MSHR misses (Count)
system.cpu.icache.demandMshrMissLatency::cpu.inst     79055500                       # number of demand (read+write) MSHR miss ticks (Tick)
system.cpu.icache.demandMshrMissLatency::total     79055500                       # number of demand (read+write) MSHR miss ticks (Tick)
system.cpu.icache.overallMshrMissLatency::cpu.inst     79055500                       # number of overall MSHR miss ticks (Tick)
system.cpu.icache.overallMshrMissLatency::total     79055500                       # number of overall MSHR miss ticks (Tick)
system.cpu.icache.demandMshrMissRate::cpu.inst     0.000012                       # mshr miss ratio for demand accesses (Ratio)
system.cpu.icache.demandMshrMissRate::total     0.000012                       # mshr miss ratio for demand accesses (Ratio)
system.cpu.icache.overallMshrMissRate::cpu.inst     0.000012                       # mshr miss ratio for overall accesses (Ratio)
system.cpu.icache.overallMshrMissRate::total     0.000012                       # mshr miss ratio for overall accesses (Ratio)
system.cpu.icache.demandAvgMshrMissLatency::cpu.inst 63498.393574                       # average overall mshr miss latency ((Tick/Count))
system.cpu.icache.demandAvgMshrMissLatency::total 63498.393574                       # average overall mshr miss latency ((Tick/Count))
system.cpu.icache.overallAvgMshrMissLatency::cpu.inst 63498.393574                       # average overall mshr miss latency ((Tick/Count))
system.cpu.icache.overallAvgMshrMissLatency::total 63498.393574                       # average overall mshr miss latency ((Tick/Count))
system.cpu.icache.replacements                    731                       # number of replacements (Count)
system.cpu.icache.ReadReq.hits::cpu.inst    102159982                       # number of ReadReq hits (Count)
system.cpu.icache.ReadReq.hits::total       102159982                       # number of ReadReq hits (Count)
system.cpu.icache.ReadReq.misses::cpu.inst         1677                       # number of ReadReq misses (Count)
system.cpu.icache.ReadReq.misses::total          1677                       # number of ReadReq misses (Count)
system.cpu.icache.ReadReq.missLatency::cpu.inst     99959500                       # number of ReadReq miss ticks (Tick)
system.cpu.icache.ReadReq.missLatency::total     99959500                       # number of ReadReq miss ticks (Tick)
system.cpu.icache.ReadReq.accesses::cpu.inst    102161659                       # number of ReadReq accesses(hits+misses) (Count)
system.cpu.icache.ReadReq.accesses::total    102161659                       # number of ReadReq accesses(hits+misses) (Count)
system.cpu.icache.ReadReq.missRate::cpu.inst     0.000016                       # miss rate for ReadReq accesses (Ratio)
system.cpu.icache.ReadReq.missRate::total     0.000016                       # miss rate for ReadReq accesses (Ratio)
system.cpu.icache.ReadReq.avgMissLatency::cpu.inst 59606.141920                       # average ReadReq miss latency ((Tick/Count))
system.cpu.icache.ReadReq.avgMissLatency::total 59606.141920                       # average ReadReq miss latency ((Tick/Count))
system.cpu.icache.ReadReq.mshrHits::cpu.inst          432                       # number of ReadReq MSHR hits (Count)
system.cpu.icache.ReadReq.mshrHits::total          432                       # number of ReadReq MSHR hits (Count)
system.cpu.icache.ReadReq.mshrMisses::cpu.inst         1245                       # number of ReadReq MSHR misses (Count)
system.cpu.icache.ReadReq.mshrMisses::total         1245                       # number of ReadReq MSHR misses (Count)
system.cpu.icache.ReadReq.mshrMissLatency::cpu.inst     79055500                       # number of ReadReq MSHR miss ticks (Tick)
system.cpu.icache.ReadReq.mshrMissLatency::total     79055500                       # number of ReadReq MSHR miss ticks (Tick)
system.cpu.icache.ReadReq.mshrMissRate::cpu.inst     0.000012                       # mshr miss rate for ReadReq accesses (Ratio)
system.cpu.icache.ReadReq.mshrMissRate::total     0.000012                       # mshr miss rate for ReadReq accesses (Ratio)
system.cpu.icache.ReadReq.avgMshrMissLatency::cpu.inst 63498.393574                       # average ReadReq mshr miss latency ((Tick/Count))
system.cpu.icache.ReadReq.avgMshrMissLatency::total 63498.393574                       # average ReadReq mshr miss latency ((Tick/Count))
system.cpu.icache.power_state.pwrStateResidencyTicks::UNDEFINED 2549108130500                       # Cumulative time (in ticks) in various power states (Tick)
system.cpu.icache.tags.tagsInUse           511.982360                       # Average ticks per tags in use ((Tick/Count))
system.cpu.icache.tags.totalRefs            102161227                       # Total number of references to valid blocks. (Count)
system.cpu.icache.tags.sampledRefs               1245                       # Sample count of references to valid blocks. (Count)
system.cpu.icache.tags.avgRefs           82057.210442                       # Average number of references to valid blocks. ((Count/Count))
system.cpu.icache.tags.warmupTick               77000                       # The tick when the warmup percentage was hit. (Tick)
system.cpu.icache.tags.occupancies::cpu.inst   511.982360                       # Average occupied blocks per tick, per requestor ((Count/Tick))
system.cpu.icache.tags.avgOccs::cpu.inst     0.999966                       # Average percentage of cache occupancy ((Ratio/Tick))
system.cpu.icache.tags.avgOccs::total        0.999966                       # Average percentage of cache occupancy ((Ratio/Tick))
system.cpu.icache.tags.occupanciesTaskId::1024          512                       # Occupied blocks per task id (Count)
system.cpu.icache.tags.ageTaskId_1024::4          512                       # Occupied blocks per task id, per block age (Count)
system.cpu.icache.tags.ratioOccsTaskId::1024            1                       # Ratio of occupied blocks and all blocks, per task id (Ratio)
system.cpu.icache.tags.tagAccesses          817294517                       # Number of tag accesses (Count)
system.cpu.icache.tags.dataAccesses         817294517                       # Number of data accesses (Count)
system.cpu.icache.tags.power_state.pwrStateResidencyTicks::UNDEFINED 2549108130500                       # Cumulative time (in ticks) in various power states (Tick)
system.cpu.iew.reusedInsts                  624679960                       # Number of instructions reused (Cycle)
system.cpu.iew.reusedFloatInsts             600474653                       # Number of float instructions reused (Cycle)
system.cpu.iew.reusedIntInsts                24205307                       # Number of int instructions reused (Cycle)
system.cpu.iew.reusedVecInsts                       0                       # Number of vector instructions reused (Cycle)
system.cpu.iew.idleCycles                           0                       # Number of cycles IEW is idle (Cycle)
system.cpu.iew.squashCycles                    223540                       # Number of cycles IEW is squashing (Cycle)
system.cpu.iew.blockCycles                  337194883                       # Number of cycles IEW is blocking (Cycle)
system.cpu.iew.unblockCycles               1588857437                       # Number of cycles IEW is unblocking (Cycle)
system.cpu.iew.dispatchedInsts             1547748688                       # Number of instructions dispatched to IQ (Count)
system.cpu.iew.dispSquashedInsts                 5492                       # Number of squashed instructions skipped by dispatch (Count)
system.cpu.iew.dispLoadInsts                232796367                       # Number of dispatched load instructions (Count)
system.cpu.iew.dispStoreInsts               159232931                       # Number of dispatched store instructions (Count)
system.cpu.iew.dispNonSpecInsts                   125                       # Number of dispatched non-speculative instructions (Count)
system.cpu.iew.iqFullEvents                   1987670                       # Number of times the IQ has become full, causing a stall (Count)
system.cpu.iew.lsqFullEvents               1583249587                       # Number of times the LSQ has become full, causing a stall (Count)
system.cpu.iew.memOrderViolationEvents           4437                       # Number of memory order violations (Count)
system.cpu.iew.predictedTakenIncorrect          39621                       # Number of branches that were predicted taken incorrectly (Count)
system.cpu.iew.predictedNotTakenIncorrect        76320                       # Number of branches that were predicted not taken incorrectly (Count)
system.cpu.iew.branchMispredicts               115941                       # Number of branch mispredicts detected at execute (Count)
system.cpu.iew.instsToCommit               1545736765                       # Cumulative count of insts sent to commit (Count)
system.cpu.iew.writebackCount              1543635012                       # Cumulative count of insts written-back (Count)
system.cpu.iew.producerInst                1027667508                       # Number of instructions producing a value (Count)
system.cpu.iew.consumerInst                1810427701                       # Number of instructions consuming a value (Count)
system.cpu.iew.wbRate                        0.302779                       # Insts written-back per cycle ((Count/Cycle))
system.cpu.iew.wbFanout                      0.567638                       # Average fanout of values written-back ((Count/Count))
system.cpu.interrupts.clk_domain.clock           8000                       # Clock period in ticks (Tick)
system.cpu.itb_walker_cache.blockedCycles::no_mshrs            0                       # number of cycles access was blocked (Cycle)
system.cpu.itb_walker_cache.blockedCycles::no_targets            0                       # number of cycles access was blocked (Cycle)
system.cpu.itb_walker_cache.blockedCauses::no_mshrs            0                       # number of times access was blocked (Count)
system.cpu.itb_walker_cache.blockedCauses::no_targets            0                       # number of times access was blocked (Count)
system.cpu.itb_walker_cache.avgBlocked::no_mshrs          nan                       # average number of cycles each access was blocked ((Cycle/Count))
system.cpu.itb_walker_cache.avgBlocked::no_targets          nan                       # average number of cycles each access was blocked ((Cycle/Count))
system.cpu.itb_walker_cache.replacements            0                       # number of replacements (Count)
system.cpu.itb_walker_cache.power_state.pwrStateResidencyTicks::UNDEFINED 2549108130500                       # Cumulative time (in ticks) in various power states (Tick)
system.cpu.itb_walker_cache.tags.tagsInUse            0                       # Average ticks per tags in use ((Tick/Count))
system.cpu.itb_walker_cache.tags.totalRefs            0                       # Total number of references to valid blocks. (Count)
system.cpu.itb_walker_cache.tags.sampledRefs            0                       # Sample count of references to valid blocks. (Count)
system.cpu.itb_walker_cache.tags.avgRefs          nan                       # Average number of references to valid blocks. ((Count/Count))
system.cpu.itb_walker_cache.tags.warmupTick            0                       # The tick when the warmup percentage was hit. (Tick)
system.cpu.itb_walker_cache.tags.tagAccesses            0                       # Number of tag accesses (Count)
system.cpu.itb_walker_cache.tags.dataAccesses            0                       # Number of data accesses (Count)
system.cpu.itb_walker_cache.tags.power_state.pwrStateResidencyTicks::UNDEFINED 2549108130500                       # Cumulative time (in ticks) in various power states (Tick)
system.cpu.lsq0.forwLoads                    47248469                       # Number of loads that had data forwarded from stores (Count)
system.cpu.lsq0.squashedLoads                 1318256                       # Number of loads squashed (Count)
system.cpu.lsq0.ignoredResponses                   94                       # Number of memory responses ignored because the instruction is squashed (Count)
system.cpu.lsq0.memOrderViolation                4437                       # Number of memory ordering violations (Count)
system.cpu.lsq0.squashedStores                3527040                       # Number of stores squashed (Count)
system.cpu.lsq0.rescheduledLoads                    2                       # Number of loads that were rescheduled (Count)
system.cpu.lsq0.blockedByCache                 238625                       # Number of times an access to memory failed due to the cache being blocked (Count)
system.cpu.lsq0.loadToUse::samples          231478086                       # Distribution of cycle latency between the first time a load is issued and its completion (Unspecified)
system.cpu.lsq0.loadToUse::mean             33.882202                       # Distribution of cycle latency between the first time a load is issued and its completion (Unspecified)
system.cpu.lsq0.loadToUse::stdev            65.176939                       # Distribution of cycle latency between the first time a load is issued and its completion (Unspecified)
system.cpu.lsq0.loadToUse::0-9              179268534     77.45%     77.45% # Distribution of cycle latency between the first time a load is issued and its completion (Unspecified)
system.cpu.lsq0.loadToUse::10-19               277043      0.12%     77.56% # Distribution of cycle latency between the first time a load is issued and its completion (Unspecified)
system.cpu.lsq0.loadToUse::20-29               181578      0.08%     77.64% # Distribution of cycle latency between the first time a load is issued and its completion (Unspecified)
system.cpu.lsq0.loadToUse::30-39                92763      0.04%     77.68% # Distribution of cycle latency between the first time a load is issued and its completion (Unspecified)
system.cpu.lsq0.loadToUse::40-49               153738      0.07%     77.75% # Distribution of cycle latency between the first time a load is issued and its completion (Unspecified)
system.cpu.lsq0.loadToUse::50-59               129907      0.06%     77.81% # Distribution of cycle latency between the first time a load is issued and its completion (Unspecified)
system.cpu.lsq0.loadToUse::60-69               124212      0.05%     77.86% # Distribution of cycle latency between the first time a load is issued and its completion (Unspecified)
[...]
system.mem_ctrls.dram.bwTotal::writebacks    864167268                       # Total bandwidth to/from this memory ((Byte/Second))
system.mem_ctrls.dram.bwTotal::cpu.inst         31208                       # Total bandwidth to/from this memory ((Byte/Second))
system.mem_ctrls.dram.bwTotal::cpu.data    1074311781                       # Total bandwidth to/from this memory ((Byte/Second))
system.mem_ctrls.dram.bwTotal::total       1938510257                       # Total bandwidth to/from this memory ((Byte/Second))
system.mem_ctrls.dram.readBursts             42790040                       # Number of DRAM read bursts (Count)
system.mem_ctrls.dram.writeBursts            34420333                       # Number of DRAM write bursts (Count)
system.mem_ctrls.dram.perBankRdBursts::0      2675522                       # Per bank write bursts (Count)
system.mem_ctrls.dram.perBankRdBursts::1      2678685                       # Per bank write bursts (Count)
system.mem_ctrls.dram.perBankRdBursts::2      2672856                       # Per bank write bursts (Count)
system.mem_ctrls.dram.perBankRdBursts::3      2672916                       # Per bank write bursts (Count)
system.mem_ctrls.dram.perBankRdBursts::4      2673054                       # Per bank write bursts (Count)
system.mem_ctrls.dram.perBankRdBursts::5      2678416                       # Per bank write bursts (Count)
system.mem_ctrls.dram.perBankRdBursts::6      2673174                       # Per bank write bursts (Count)
system.mem_ctrls.dram.perBankRdBursts::7      2673029                       # Per bank write bursts (Count)
system.mem_ctrls.dram.perBankRdBursts::8      2673075                       # Per bank write bursts (Count)
system.mem_ctrls.dram.perBankRdBursts::9      2673062                       # Per bank write bursts (Count)
system.mem_ctrls.dram.perBankRdBursts::10      2673141                       # Per bank write bursts (Count)
system.mem_ctrls.dram.perBankRdBursts::11      2673097                       # Per bank write bursts (Count)
system.mem_ctrls.dram.perBankRdBursts::12      2678548                       # Per bank write bursts (Count)
system.mem_ctrls.dram.perBankRdBursts::13      2672996                       # Per bank write bursts (Count)
system.mem_ctrls.dram.perBankRdBursts::14      2672986                       # Per bank write bursts (Count)
system.mem_ctrls.dram.perBankRdBursts::15      2675483                       # Per bank write bursts (Count)
system.mem_ctrls.dram.perBankWrBursts::0      2150624                       # Per bank write bursts (Count)
system.mem_ctrls.dram.perBankWrBursts::1      2150816                       # Per bank write bursts (Count)
system.mem_ctrls.dram.perBankWrBursts::2      2150725                       # Per bank write bursts (Count)
system.mem_ctrls.dram.perBankWrBursts::3      2150939                       # Per bank write bursts (Count)
system.mem_ctrls.dram.perBankWrBursts::4      2151071                       # Per bank write bursts (Count)
system.mem_ctrls.dram.perBankWrBursts::5      2157200                       # Per bank write bursts (Count)
system.mem_ctrls.dram.perBankWrBursts::6      2151200                       # Per bank write bursts (Count)
system.mem_ctrls.dram.perBankWrBursts::7      2151104                       # Per bank write bursts (Count)
system.mem_ctrls.dram.perBankWrBursts::8      2151096                       # Per bank write bursts (Count)
system.mem_ctrls.dram.perBankWrBursts::9      2150889                       # Per bank write bursts (Count)
system.mem_ctrls.dram.perBankWrBursts::10      2151057                       # Per bank write bursts (Count)
system.mem_ctrls.dram.perBankWrBursts::11      2150880                       # Per bank write bursts (Count)
system.mem_ctrls.dram.perBankWrBursts::12      2150762                       # Per bank write bursts (Count)
system.mem_ctrls.dram.perBankWrBursts::13      2150651                       # Per bank write bursts (Count)
system.mem_ctrls.dram.perBankWrBursts::14      2150682                       # Per bank write bursts (Count)
system.mem_ctrls.dram.perBankWrBursts::15      2150637                       # Per bank write bursts (Count)
system.mem_ctrls.dram.totQLat            622672797000                       # Total ticks spent queuing (Tick)
system.mem_ctrls.dram.totBusLat          213950200000                       # Total ticks spent in databus transfers (Tick)
system.mem_ctrls.dram.totMemAccLat       1424986047000                       # Total ticks spent from burst creation until serviced by the DRAM (Tick)
system.mem_ctrls.dram.avgQLat                14551.82                       # Average queueing delay per DRAM burst ((Tick/Count))
system.mem_ctrls.dram.avgBusLat               5000.00                       # Average bus latency per DRAM burst ((Tick/Count))
system.mem_ctrls.dram.avgMemAccLat           33301.82                       # Average memory access latency per DRAM burst ((Tick/Count))
system.mem_ctrls.dram.readRowHits            32553790                       # Number of row buffer hits during reads (Count)
system.mem_ctrls.dram.writeRowHits           30341020                       # Number of row buffer hits during writes (Count)
system.mem_ctrls.dram.readRowHitRate            76.08                       # Row buffer hit rate for reads (Ratio)
system.mem_ctrls.dram.writeRowHitRate           88.15                       # Row buffer hit rate for writes (Ratio)
system.mem_ctrls.dram.bytesPerActivate::samples     14315553                       # Bytes accessed per row activation (Byte)
system.mem_ctrls.dram.bytesPerActivate::mean   345.181241                       # Bytes accessed per row activation (Byte)
system.mem_ctrls.dram.bytesPerActivate::gmean   219.988672                       # Bytes accessed per row activation (Byte)
system.mem_ctrls.dram.bytesPerActivate::stdev   327.671066                       # Bytes accessed per row activation (Byte)
system.mem_ctrls.dram.bytesPerActivate::0-127      3538653     24.72%     24.72% # Bytes accessed per row activation (Byte)
system.mem_ctrls.dram.bytesPerActivate::128-255      4317876     30.16%     54.88% # Bytes accessed per row activation (Byte)
system.mem_ctrls.dram.bytesPerActivate::256-383      1785672     12.47%     67.35% # Bytes accessed per row activation (Byte)
system.mem_ctrls.dram.bytesPerActivate::384-511      1023249      7.15%     74.50% # Bytes accessed per row activation (Byte)
system.mem_ctrls.dram.bytesPerActivate::512-639       827739      5.78%     80.28% # Bytes accessed per row activation (Byte)
system.mem_ctrls.dram.bytesPerActivate::640-767       377262      2.64%     82.92% # Bytes accessed per row activation (Byte)
system.mem_ctrls.dram.bytesPerActivate::768-895       311603      2.18%     85.10% # Bytes accessed per row activation (Byte)
system.mem_ctrls.dram.bytesPerActivate::896-1023       254435      1.78%     86.87% # Bytes accessed per row activation (Byte)
system.mem_ctrls.dram.bytesPerActivate::1024-1151      1879064     13.13%    100.00% # Bytes accessed per row activation (Byte)
system.mem_ctrls.dram.bytesPerActivate::total     14315553                       # Bytes accessed per row activation (Byte)
system.mem_ctrls.dram.bytesRead            2738562560                       # Total bytes read (Byte)
system.mem_ctrls.dram.bytesWritten         2202901312                       # Total bytes written (Byte)
system.mem_ctrls.dram.avgRdBW             1074.321849                       # Average DRAM read bandwidth in MiBytes/s ((Byte/Second))
system.mem_ctrls.dram.avgWrBW              864.185119                       # Average DRAM write bandwidth in MiBytes/s ((Byte/Second))
system.mem_ctrls.dram.peakBW                 12800.00                       # Theoretical peak bandwidth in MiByte/s ((Byte/Second))
system.mem_ctrls.dram.busUtil                   15.14                       # Data bus utilization in percentage (Ratio)
system.mem_ctrls.dram.busUtilRead                8.39                       # Data bus utilization in percentage for reads (Ratio)
system.mem_ctrls.dram.busUtilWrite               6.75                       # Data bus utilization in percentage for writes (Ratio)
system.mem_ctrls.dram.pageHitRate               81.46                       # Row buffer hit rate, read and write combined (Ratio)
system.mem_ctrls.dram.power_state.pwrStateResidencyTicks::UNDEFINED 2549108130500                       # Cumulative time (in ticks) in various power states (Tick)
system.mem_ctrls.dram.rank0.actEnergy     51147097260                       # Energy for activate commands per rank (pJ) (Joule)
system.mem_ctrls.dram.rank0.preEnergy     27185311725                       # Energy for precharge commands per rank (pJ) (Joule)
system.mem_ctrls.dram.rank0.readEnergy   152779235280                       # Energy for read commands per rank (pJ) (Joule)
system.mem_ctrls.dram.rank0.writeEnergy   89855404380                       # Energy for write commands per rank (pJ) (Joule)
system.mem_ctrls.dram.rank0.refreshEnergy 201223916400.000031                       # Energy for refresh commands per rank (pJ) (Joule)
system.mem_ctrls.dram.rank0.actBackEnergy 1054045024860                       # Energy for active background per rank (pJ) (Joule)
system.mem_ctrls.dram.rank0.preBackEnergy  91240659360                       # Energy for precharge background per rank (pJ) (Joule)
system.mem_ctrls.dram.rank0.actPowerDownEnergy            0                       # Energy for active power-down per rank (pJ) (Joule)
system.mem_ctrls.dram.rank0.prePowerDownEnergy            0                       # Energy for precharge power-down per rank (pJ) (Joule)
system.mem_ctrls.dram.rank0.selfRefreshEnergy            0                       # Energy for self refresh per rank (pJ) (Joule)
system.mem_ctrls.dram.rank0.totalEnergy  1667476649265                       # Total energy per rank (pJ) (Joule)
system.mem_ctrls.dram.rank0.averagePower   654.141199                       # Core power per rank (mW) (Watt)
system.mem_ctrls.dram.rank0.totalIdleTime            0                       # Total Idle time Per DRAM Rank (Tick)
system.mem_ctrls.dram.rank0.pwrStateTime::IDLE 226144522500                       # Time in different power states (Tick)
system.mem_ctrls.dram.rank0.pwrStateTime::REF  85120100000                       # Time in different power states (Tick)
system.mem_ctrls.dram.rank0.pwrStateTime::SREF            0                       # Time in different power states (Tick)
system.mem_ctrls.dram.rank0.pwrStateTime::PRE_PDN            0                       # Time in different power states (Tick)
system.mem_ctrls.dram.rank0.pwrStateTime::ACT 2237843508000                       # Time in different power states (Tick)
system.mem_ctrls.dram.rank0.pwrStateTime::ACT_PDN            0                       # Time in different power states (Tick)
system.mem_ctrls.dram.rank1.actEnergy     51066022560                       # Energy for activate commands per rank (pJ) (Joule)
system.mem_ctrls.dram.rank1.preEnergy     27142211910                       # Energy for precharge commands per rank (pJ) (Joule)
system.mem_ctrls.dram.rank1.readEnergy   152741650320                       # Energy for read commands per rank (pJ) (Joule)
system.mem_ctrls.dram.rank1.writeEnergy   89818733880                       # Energy for write commands per rank (pJ) (Joule)
system.mem_ctrls.dram.rank1.refreshEnergy 201223916400.000031                       # Energy for refresh commands per rank (pJ) (Joule)
system.mem_ctrls.dram.rank1.actBackEnergy 1055055673050                       # Energy for active background per rank (pJ) (Joule)
system.mem_ctrls.dram.rank1.preBackEnergy  90389587200                       # Energy for precharge background per rank (pJ) (Joule)
system.mem_ctrls.dram.rank1.actPowerDownEnergy            0                       # Energy for active power-down per rank (pJ) (Joule)
system.mem_ctrls.dram.rank1.prePowerDownEnergy            0                       # Energy for precharge power-down per rank (pJ) (Joule)
system.mem_ctrls.dram.rank1.selfRefreshEnergy            0                       # Energy for self refresh per rank (pJ) (Joule)
system.mem_ctrls.dram.rank1.totalEnergy  1667437795320                       # Total energy per rank (pJ) (Joule)
system.mem_ctrls.dram.rank1.averagePower   654.125957                       # Core power per rank (mW) (Watt)
system.mem_ctrls.dram.rank1.totalIdleTime            0                       # Total Idle time Per DRAM Rank (Tick)
system.mem_ctrls.dram.rank1.pwrStateTime::IDLE 223921949250                       # Time in different power states (Tick)
system.mem_ctrls.dram.rank1.pwrStateTime::REF  85120100000                       # Time in different power states (Tick)
system.mem_ctrls.dram.rank1.pwrStateTime::SREF            0                       # Time in different power states (Tick)
system.mem_ctrls.dram.rank1.pwrStateTime::PRE_PDN            0                       # Time in different power states (Tick)
system.mem_ctrls.dram.rank1.pwrStateTime::ACT 2240066081250                       # Time in different power states (Tick)
system.mem_ctrls.dram.rank1.pwrStateTime::ACT_PDN            0                       # Time in different power states (Tick)
system.mem_ctrls.power_state.pwrStateResidencyTicks::UNDEFINED 2549108130500                       # Cumulative time (in ticks) in various power states (Tick)
system.membus.transDist::ReadResp             8560967                       # Transaction distribution (Count)
system.membus.transDist::WritebackDirty      34419622                       # Transaction distribution (Count)
system.membus.transDist::WritebackClean           731                       # Transaction distribution (Count)
system.membus.transDist::CleanEvict           8369502                       # Transaction distribution (Count)
system.membus.transDist::UpgradeReq                 2                       # Transaction distribution (Count)
system.membus.transDist::ReadExReq           34229916                       # Transaction distribution (Count)
system.membus.transDist::ReadExResp          34229915                       # Transaction distribution (Count)
system.membus.transDist::ReadCleanReq            1245                       # Transaction distribution (Count)
system.membus.transDist::ReadSharedReq        8559723                       # Transaction distribution (Count)
system.membus.pktCount_system.cpu.icache.mem_side_port::system.mem_ctrls.port         3219                       # Packet count per connected requestor and responder (Count)
system.membus.pktCount_system.cpu.icache.mem_side_port::total         3219                       # Packet count per connected requestor and responder (Count)
system.membus.pktCount_system.cpu.dcache.mem_side_port::system.mem_ctrls.port    128368402                       # Packet count per connected requestor and responder (Count)
system.membus.pktCount_system.cpu.dcache.mem_side_port::total    128368402                       # Packet count per connected requestor and responder (Count)
system.membus.pktCount::total               128371621                       # Packet count per connected requestor and responder (Count)
system.membus.pktSize_system.cpu.icache.mem_side_port::system.mem_ctrls.port       126336                       # Cumulative packet size per connected requestor and responder (Byte)
system.membus.pktSize_system.cpu.icache.mem_side_port::total       126336                       # Cumulative packet size per connected requestor and responder (Byte)
system.membus.pktSize_system.cpu.dcache.mem_side_port::system.mem_ctrls.port   4941392576                       # Cumulative packet size per connected requestor and responder (Byte)
system.membus.pktSize_system.cpu.dcache.mem_side_port::total   4941392576                       # Cumulative packet size per connected requestor and responder (Byte)
system.membus.pktSize::total               4941518912                       # Cumulative packet size per connected requestor and responder (Byte)
system.membus.snoops                                2                       # Total snoops (Count)
system.membus.snoopTraffic                        128                       # Total snoop traffic (Byte)
system.membus.snoopFanout::samples           42790886                       # Request fanout histogram (Count)
system.membus.snoopFanout::mean              0.000002                       # Request fanout histogram (Count)
system.membus.snoopFanout::stdev             0.001536                       # Request fanout histogram (Count)
system.membus.snoopFanout::underflows               0      0.00%      0.00% # Request fanout histogram (Count)
system.membus.snoopFanout::0                 42790785    100.00%    100.00% # Request fanout histogram (Count)
system.membus.snoopFanout::1                      101      0.00%    100.00% # Request fanout histogram (Count)
system.membus.snoopFanout::2                        0      0.00%    100.00% # Request fanout histogram (Count)
system.membus.snoopFanout::3                        0      0.00%    100.00% # Request fanout histogram (Count)
system.membus.snoopFanout::4                        0      0.00%    100.00% # Request fanout histogram (Count)
system.membus.snoopFanout::overflows                0      0.00%    100.00% # Request fanout histogram (Count)
system.membus.snoopFanout::min_value                0                       # Request fanout histogram (Count)
system.membus.snoopFanout::max_value                1                       # Request fanout histogram (Count)
system.membus.snoopFanout::total             42790886                       # Request fanout histogram (Count)
system.membus.power_state.pwrStateResidencyTicks::UNDEFINED 2549108130500                       # Cumulative time (in ticks) in various power states (Tick)
system.membus.reqLayer2.occupancy        226667040500                       # Layer occupancy (ticks) (Tick)
system.membus.reqLayer2.utilization               0.1                       # Layer utilization (Ratio)
system.membus.respLayer1.occupancy            6625250                       # Layer occupancy (ticks) (Tick)
system.membus.respLayer1.utilization              0.0                       # Layer utilization (Ratio)
system.membus.respLayer2.occupancy       228032594500                       # Layer occupancy (ticks) (Tick)
system.membus.respLayer2.utilization              0.1                       # Layer utilization (Ratio)
system.membus.snoop_filter.totRequests       85580741                       # Total number of requests made to the snoop filter. (Count)
system.membus.snoop_filter.hitSingleRequests     42789855                       # Number of requests hitting in the snoop filter with a single holder of the requested data. (Count)
system.membus.snoop_filter.hitMultiRequests          101                       # Number of requests hitting in the snoop filter with multiple (>1) holders of the requested data. (Count)
system.membus.snoop_filter.totSnoops                0                       # Total number of snoops made to the snoop filter. (Count)
system.membus.snoop_filter.hitSingleSnoops            0                       # Number of snoops hitting in the snoop filter with a single holder of the requested data. (Count)
system.membus.snoop_filter.hitMultiSnoops            0                       # Number of snoops hitting in the snoop filter with multiple (>1) holders of the requested data. (Count)
system.voltage_domain.voltage                       1                       # Voltage in Volts (Volt)
system.workload.inst.arm                            0                       # number of arm instructions executed (Count)
system.workload.inst.quiesce                        0                       # number of quiesce instructions executed (Count)

---------- End Simulation Statistics   ----------
