
---------- Begin Simulation Statistics ----------
simSeconds                                   0.103940                       # Number of seconds simulated (Second)
simTicks                                 103939931000                       # Number of ticks simulated (Tick)
finalTick                                103939931000                       # Number of ticks from beginning of simulation (restored from checkpoints and never reset) (Tick)
simFreq                                  1000000000000                       # The number of ticks per simulated second ((Tick/Second))
hostSeconds                                   3110.94                       # Real time elapsed on the host (Second)
hostTickRate                                 33411141                       # The number of ticks simulated per host second (ticks/s) ((Tick/Second))
hostMemory                                    8719884                       # Number of bytes of host memory used (Byte)
simInsts                                    426048340                       # Number of instructions simulated (Count)
simOps                                      761731501                       # Number of ops (including micro ops) simulated (Count)
hostInstRate                                   136952                       # Simulator instruction rate (inst/s) ((Count/Second))
hostOpRate                                     244856                       # Simulator op (including micro ops) rate (op/s) ((Count/Second))
system.clk_domain.clock                          1000                       # Clock period in ticks (Tick)
system.cpu.numCycles                        207879863                       # Number of cpu cycles simulated (Cycle)
system.cpu.numWorkItemsStarted                      0                       # Number of work items this cpu started (Count)
system.cpu.numWorkItemsCompleted                    0                       # Number of work items this cpu completed (Count)
system.cpu.instsAdded                       774744843                       # Number of instructions added to the IQ (excludes non-spec) (Count)
system.cpu.nonSpecInstsAdded                      101                       # Number of non-speculative instructions added to the IQ (Count)
system.cpu.instsIssued                      770808950                       # Number of instructions issued (Count)
system.cpu.squashedInstsIssued                  50597                       # Number of squashed instructions issued (Count)
system.cpu.squashedInstsExamined             13013437                       # Number of squashed instructions iterated over during squash; mainly for profiling (Count)
system.cpu.squashedOperandsExamined          25405574                       # Number of squashed operands that are examined and possibly removed from graph (Count)
system.cpu.squashedNonSpecRemoved                  65                       # Number of squashed non-spec instructions that were removed (Count)
system.cpu.numIssuedDist::samples           207810276                       # Number of insts issued each cycle (Count)
system.cpu.numIssuedDist::mean               3.709196                       # Number of insts issued each cycle (Count)
system.cpu.numIssuedDist::stdev              2.126121                       # Number of insts issued each cycle (Count)
system.cpu.numIssuedDist::underflows                0      0.00%      0.00% # Number of insts issued each cycle (Count)
system.cpu.numIssuedDist::0                  11569903      5.57%      5.57% # Number of insts issued each cycle (Count)
system.cpu.numIssuedDist::1                  24169862     11.63%     17.20% # Number of insts issued each cycle (Count)
system.cpu.numIssuedDist::2                  32493615     15.64%     32.83% # Number of insts issued each cycle (Count)
system.cpu.numIssuedDist::3                  30499448     14.68%     47.51% # Number of insts issued each cycle (Count)
system.cpu.numIssuedDist::4                  34109726     16.41%     63.92% # Number of insts issued each cycle (Count)
system.cpu.numIssuedDist::5                  28519086     13.72%     77.65% # Number of insts issued each cycle (Count)
system.cpu.numIssuedDist::6                  22714247     10.93%     88.58% # Number of insts issued each cycle (Count)
system.cpu.numIssuedDist::7                  15041414      7.24%     95.82% # Number of insts issued each cycle (Count)
system.cpu.numIssuedDist::8                   8692975      4.18%    100.00% # Number of insts issued each cycle (Count)
system.cpu.numIssuedDist::overflows                 0      0.00%    100.00% # Number of insts issued each cycle (Count)
system.cpu.numIssuedDist::min_value                 0                       # Number of insts issued each cycle (Count)
system.cpu.numIssuedDist::max_value                 8                       # Number of insts issued each cycle (Count)
system.cpu.numIssuedDist::total             207810276                       # Number of insts issued each cycle (Count)
system.cpu.statFuBusy::No_OpClass                   0      0.00%      0.00% # attempts to use FU when none available (Count)
system.cpu.statFuBusy::IntAlu                 8628819     85.88%     85.88% # attempts to use FU when none available (Count)
system.cpu.statFuBusy::IntMult                      0      0.00%     85.88% # attempts to use FU when none available (Count)
system.cpu.statFuBusy::IntDiv                       0      0.00%     85.88% # attempts to use FU when none available (Count)
system.cpu.statFuBusy::FloatAdd                     0      0.00%     85.88% # attempts to use FU when none available (Count)
system.cpu.statFuBusy::FloatCmp                     0      0.00%     85.88% # attempts to use FU when none available (Count)
system.cpu.statFuBusy::FloatCvt                     0      0.00%     85.88% # attempts to use FU when none available (Count)
system.cpu.statFuBusy::FloatMult                    0      0.00%     85.88% # attempts to use FU when none available (Count)
system.cpu.statFuBusy::FloatMultAcc                 0      0.00%     85.88% # attempts to use FU when none available (Count)
system.cpu.statFuBusy::FloatDiv                     0      0.00%     85.88% # attempts to use FU when none available (Count)
system.cpu.statFuBusy::FloatMisc                    0      0.00%     85.88% # attempts to use FU when none available (Count)
system.cpu.statFuBusy::FloatSqrt                    0      0.00%     85.88% # attempts to use FU when none available (Count)
system.cpu.statFuBusy::SimdAdd                      0      0.00%     85.88% # attempts to use FU when none available (Count)
system.cpu.statFuBusy::SimdAddAcc                   0      0.00%     85.88% # attempts to use FU when none available (Count)
system.cpu.statFuBusy::SimdAlu                      3      0.00%     85.88% # attempts to use FU when none available (Count)
system.cpu.statFuBusy::SimdCmp                      0      0.00%     85.88% # attempts to use FU when none available (Count)
system.cpu.statFuBusy::SimdCvt                      9      0.00%     85.88% # attempts to use FU when none available (Count)
system.cpu.statFuBusy::SimdMisc                 46990      0.47%     86.35% # attempts to use FU when none available (Count)
system.cpu.statFuBusy::SimdMult                     0      0.00%     86.35% # attempts to use FU when none available (Count)
system.cpu.statFuBusy::SimdMultAcc                  0      0.00%     86.35% # attempts to use FU when none available (Count)
system.cpu.statFuBusy::SimdShift                    0      0.00%     86.35% # attempts to use FU when none available (Count)
system.cpu.statFuBusy::SimdShiftAcc                 0      0.00%     86.35% # attempts to use FU when none available (Count)
system.cpu.statFuBusy::SimdDiv                      0      0.00%     86.35% # attempts to use FU when none available (Count)
system.cpu.statFuBusy::SimdSqrt                     0      0.00%     86.35% # attempts to use FU when none available (Count)
system.cpu.statFuBusy::SimdFloatAdd                 0      0.00%     86.35% # attempts to use FU when none available (Count)
system.cpu.statFuBusy::SimdFloatAlu                 0      0.00%     86.35% # attempts to use FU when none available (Count)
system.cpu.statFuBusy::SimdFloatCmp                 0      0.00%     86.35% # attempts to use FU when none available (Count)
system.cpu.statFuBusy::SimdFloatCvt                 0      0.00%     86.35% # attempts to use FU when none available (Count)
system.cpu.statFuBusy::SimdFloatDiv                 0      0.00%     86.35% # attempts to use FU when none available (Count)
system.cpu.statFuBusy::SimdFloatMisc                0      0.00%     86.35% # attempts to use FU when none available (Count)
system.cpu.statFuBusy::SimdFloatMult                0      0.00%     86.35% # attempts to use FU when none available (Count)
system.cpu.statFuBusy::SimdFloatMultAcc             0      0.00%     86.35% # attempts to use FU when none available (Count)
system.cpu.statFuBusy::SimdFloatSqrt                0      0.00%     86.35% # attempts to use FU when none available (Count)
system.cpu.statFuBusy::SimdReduceAdd                0      0.00%     86.35% # attempts to use FU when none available (Count)
system.cpu.statFuBusy::SimdReduceAlu                0      0.00%     86.35% # attempts to use FU when none available (Count)
system.cpu.statFuBusy::SimdReduceCmp                0      0.00%     86.35% # attempts to use FU when none available (Count)
system.cpu.statFuBusy::SimdFloatReduceAdd            0      0.00%     86.35% # attempts to use FU when none available (Count)
system.cpu.statFuBusy::SimdFloatReduceCmp            0      0.00%     86.35% # attempts to use FU when none available (Count)
system.cpu.statFuBusy::SimdAes                      0      0.00%     86.35% # attempts to use FU when none available (Count)
system.cpu.statFuBusy::SimdAesMix                   0      0.00%     86.35% # attempts to use FU when none available (Count)
system.cpu.statFuBusy::SimdSha1Hash                 0      0.00%     86.35% # attempts to use FU when none available (Count)
system.cpu.statFuBusy::SimdSha1Hash2                0      0.00%     86.35% # attempts to use FU when none available (Count)
system.cpu.statFuBusy::SimdSha256Hash               0      0.00%     86.35% # attempts to use FU when none available (Count)
system.cpu.statFuBusy::SimdSha256Hash2              0      0.00%     86.35% # attempts to use FU when none available (Count)
system.cpu.statFuBusy::SimdShaSigma2                0      0.00%     86.35% # attempts to use FU when none available (Count)
system.cpu.statFuBusy::SimdShaSigma3                0      0.00%     86.35% # attempts to use FU when none available (Count)
system.cpu.statFuBusy::SimdPredAlu                  0      0.00%     86.35% # attempts to use FU when none available (Count)
system.cpu.statFuBusy::MemRead                 668680      6.65%     93.00% # attempts to use FU when none available (Count)
system.cpu.statFuBusy::MemWrite                133274      1.33%     94.33% # attempts to use FU when none available (Count)
system.cpu.statFuBusy::FloatMemRead                16      0.00%     94.33% # attempts to use FU when none available (Count)
system.cpu.statFuBusy::FloatMemWrite           570054      5.67%    100.00% # attempts to use FU when none available (Count)
system.cpu.statFuBusy::IprAccess                    0      0.00%    100.00% # attempts to use FU when none available (Count)
system.cpu.statFuBusy::InstPrefetch                 0      0.00%    100.00% # attempts to use FU when none available (Count)
system.cpu.statIssuedInstType_0::No_OpClass      2551147      0.33%      0.33% # Number of instructions issued per FU type, per thread (Count)
system.cpu.statIssuedInstType_0::IntAlu     593293592     76.97%     77.30% # Number of instructions issued per FU type, per thread (Count)
system.cpu.statIssuedInstType_0::IntMult     10671422      1.38%     78.69% # Number of instructions issued per FU type, per thread (Count)
system.cpu.statIssuedInstType_0::IntDiv       1332183      0.17%     78.86% # Number of instructions issued per FU type, per thread (Count)
system.cpu.statIssuedInstType_0::FloatAdd       705068      0.09%     78.95% # Number of instructions issued per FU type, per thread (Count)
system.cpu.statIssuedInstType_0::FloatCmp            0      0.00%     78.95% # Number of instructions issued per FU type, per thread (Count)
system.cpu.statIssuedInstType_0::FloatCvt           64      0.00%     78.95% # Number of instructions issued per FU type, per thread (Count)
system.cpu.statIssuedInstType_0::FloatMult            0      0.00%     78.95% # Number of instructions issued per FU type, per thread (Count)
system.cpu.statIssuedInstType_0::FloatMultAcc            0      0.00%     78.95% # Number of instructions issued per FU type, per thread (Count)
system.cpu.statIssuedInstType_0::FloatDiv            0      0.00%     78.95% # Number of instructions issued per FU type, per thread (Count)
system.cpu.statIssuedInstType_0::FloatMisc            0      0.00%     78.95% # Number of instructions issued per FU type, per thread (Count)
system.cpu.statIssuedInstType_0::FloatSqrt            0      0.00%     78.95% # Number of instructions issued per FU type, per thread (Count)
system.cpu.statIssuedInstType_0::SimdAdd            0      0.00%     78.95% # Number of instructions issued per FU type, per thread (Count)
system.cpu.statIssuedInstType_0::SimdAddAcc            0      0.00%     78.95% # Number of instructions issued per FU type, per thread (Count)
system.cpu.statIssuedInstType_0::SimdAlu      2731700      0.35%     79.30% # Number of instructions issued per FU type, per thread (Count)
system.cpu.statIssuedInstType_0::SimdCmp            0      0.00%     79.30% # Number of instructions issued per FU type, per thread (Count)
system.cpu.statIssuedInstType_0::SimdCvt      2537520      0.33%     79.63% # Number of instructions issued per FU type, per thread (Count)
system.cpu.statIssuedInstType_0::SimdMisc      7048485      0.91%     80.55% # Number of instructions issued per FU type, per thread (Count)
system.cpu.statIssuedInstType_0::SimdMult            0      0.00%     80.55% # Number of instructions issued per FU type, per thread (Count)
system.cpu.statIssuedInstType_0::SimdMultAcc            0      0.00%     80.55% # Number of instructions issued per FU type, per thread (Count)
system.cpu.statIssuedInstType_0::SimdShift            0      0.00%     80.55% # Number of instructions issued per FU type, per thread (Count)
system.cpu.statIssuedInstType_0::SimdShiftAcc            0      0.00%     80.55% # Number of instructions issued per FU type, per thread (Count)
system.cpu.statIssuedInstType_0::SimdDiv            0      0.00%     80.55% # Number of instructions issued per FU type, per thread (Count)
system.cpu.statIssuedInstType_0::SimdSqrt            0      0.00%     80.55% # Number of instructions issued per FU type, per thread (Count)
system.cpu.statIssuedInstType_0::SimdFloatAdd        47006      0.01%     80.55% # Number of instructions issued per FU type, per thread (Count)
system.cpu.statIssuedInstType_0::SimdFloatAlu            0      0.00%     80.55% # Number of instructions issued per FU type, per thread (Count)
system.cpu.statIssuedInstType_0::SimdFloatCmp            0      0.00%     80.55% # Number of instructions issued per FU type, per thread (Count)
system.cpu.statIssuedInstType_0::SimdFloatCvt      1033796      0.13%     80.69% # Number of instructions issued per FU type, per thread (Count)
system.cpu.statIssuedInstType_0::SimdFloatDiv        47024      0.01%     80.69% # Number of instructions issued per FU type, per thread (Count)
system.cpu.statIssuedInstType_0::SimdFloatMisc            0      0.00%     80.69% # Number of instructions issued per FU type, per thread (Count)
system.cpu.statIssuedInstType_0::SimdFloatMult       986772      0.13%     80.82% # Number of instructions issued per FU type, per thread (Count)
system.cpu.statIssuedInstType_0::SimdFloatMultAcc            0      0.00%     80.82% # Number of instructions issued per FU type, per thread (Count)
system.cpu.statIssuedInstType_0::SimdFloatSqrt            0      0.00%     80.82% # Number of instructions issued per FU type, per thread (Count)
system.cpu.statIssuedInstType_0::SimdReduceAdd            0      0.00%     80.82% # Number of instructions issued per FU type, per thread (Count)
system.cpu.statIssuedInstType_0::SimdReduceAlu            0      0.00%     80.82% # Number of instructions issued per FU type, per thread (Count)
system.cpu.statIssuedInstType_0::SimdReduceCmp            0      0.00%     80.82% # Number of instructions issued per FU type, per thread (Count)
system.cpu.statIssuedInstType_0::SimdFloatReduceAdd            0      0.00%     80.82% # Number of instructions issued per FU type, per thread (Count)
system.cpu.statIssuedInstType_0::SimdFloatReduceCmp            0      0.00%     80.82% # Number of instructions issued per FU type, per thread (Count)
system.cpu.statIssuedInstType_0::SimdAes            0      0.00%     80.82% # Number of instructions issued per FU type, per thread (Count)
system.cpu.statIssuedInstType_0::SimdAesMix            0      0.00%     80.82% # Number of instructions issued per FU type, per thread (Count)
system.cpu.statIssuedInstType_0::SimdSha1Hash            0      0.00%     80.82% # Number of instructions issued per FU type, per thread (Count)
system.cpu.statIssuedInstType_0::SimdSha1Hash2            0      0.00%     80.82% # Number of instructions issued per FU type, per thread (Count)
system.cpu.statIssuedInstType_0::SimdSha256Hash            0      0.00%     80.82% # Number of instructions issued per FU type, per thread (Count)
system.cpu.statIssuedInstType_0::SimdSha256Hash2            0      0.00%     80.82% # Number of instructions issued per FU type, per thread (Count)
system.cpu.statIssuedInstType_0::SimdShaSigma2            0      0.00%     80.82% # Number of instructions issued per FU type, per thread (Count)
system.cpu.statIssuedInstType_0::SimdShaSigma3            0      0.00%     80.82% # Number of instructions issued per FU type, per thread (Count)
system.cpu.statIssuedInstType_0::SimdPredAlu            0      0.00%     80.82% # Number of instructions issued per FU type, per thread (Count)
system.cpu.statIssuedInstType_0::MemRead     80126970     10.40%     91.22% # Number of instructions issued per FU type, per thread (Count)
system.cpu.statIssuedInstType_0::MemWrite     61582776      7.99%     99.21% # Number of instructions issued per FU type, per thread (Count)
system.cpu.statIssuedInstType_0::FloatMemRead      2587219      0.34%     99.54% # Number of instructions issued per FU type, per thread (Count)
system.cpu.statIssuedInstType_0::FloatMemWrite      3526206      0.46%    100.00% # Number of instructions issued per FU type, per thread (Count)
system.cpu.statIssuedInstType_0::IprAccess            0      0.00%    100.00% # Number of instructions issued per FU type, per thread (Count)
system.cpu.statIssuedInstType_0::InstPrefetch            0      0.00%    100.00% # Number of instructions issued per FU type, per thread (Count)
system.cpu.statIssuedInstType_0::total      770808950                       # Number of instructions issued per FU type, per thread (Count)
system.cpu.issueRate                         3.707954                       # Inst issue rate ((Count/Cycle))
system.cpu.fuBusy                            10047845                       # FU busy when requested (Count)
system.cpu.fuBusyRate                        0.013035                       # FU busy rate (busy events/executed inst) ((Count/Count))
system.cpu.intInstQueueReads               1712836525                       # Number of integer instruction queue reads (Count)
system.cpu.intInstQueueWrites               764688808                       # Number of integer instruction queue writes (Count)
system.cpu.intInstQueueWakeupAccesses       746532525                       # Number of integer instruction queue wakeup accesses (Count)
system.cpu.fpInstQueueReads                  46690093                       # Number of floating instruction queue reads (Count)
system.cpu.fpInstQueueWrites                 23076029                       # Number of floating instruction queue writes (Count)
system.cpu.fpInstQueueWakeupAccesses         23033520                       # Number of floating instruction queue wakeup accesses (Count)
system.cpu.vecInstQueueReads                        0                       # Number of vector instruction queue reads (Count)
system.cpu.vecInstQueueWrites                       0                       # Number of vector instruction queue writes (Count)
system.cpu.vecInstQueueWakeupAccesses               0                       # Number of vector instruction queue wakeup accesses (Count)
system.cpu.intAluAccesses                   754652093                       # Number of integer alu accesses (Count)
system.cpu.fpAluAccesses                     23653555                       # Number of floating point alu accesses (Count)
system.cpu.vecAluAccesses                           0                       # Number of vector alu accesses (Count)
system.cpu.numInsts                         769928868                       # Number of executed instructions (Count)
system.cpu.numLoadInsts                      82558179                       # Number of load instructions executed (Count)
system.cpu.numSquashedInsts                    880082                       # Number of squashed instructions skipped in execute (Count)
system.cpu.numSwp                                   0                       # Number of swp insts executed (Count)
system.cpu.numNop                                   0                       # Number of nop insts executed (Count)
system.cpu.numRefs                          147613369                       # Number of memory reference insts executed (Count)
system.cpu.numBranches                       70637333                       # Number of branches executed (Count)
system.cpu.numStoreInsts                     65055190                       # Number of stores executed (Count)
system.cpu.numRate                           3.703720                       # Inst execution rate ((Count/Cycle))
system.cpu.timesIdled                             778                       # Number of times that the entire CPU went into an idle state and unscheduled itself (Count)
system.cpu.idleCycles                           69587                       # Total number of cycles that the CPU has spent unscheduled due to idling (Cycle)
system.cpu.committedInsts                   426048340                       # Number of Instructions Simulated (Count)
system.cpu.committedOps                     761731501                       # Number of Ops (including micro ops) Simulated (Count)
system.cpu.cpi                               0.487926                       # CPI: Cycles Per Instruction ((Cycle/Count))
system.cpu.totalCpi                          0.487926                       # CPI: Total CPI of All Threads ((Cycle/Count))
system.cpu.ipc                               2.049493                       # IPC: Instructions Per Cycle ((Count/Cycle))
system.cpu.totalIpc                          2.049493                       # IPC: Total IPC of All Threads ((Count/Cycle))
system.cpu.intRegfileReads                 1373788785                       # Number of integer regfile reads (Count)
system.cpu.intRegfileWrites                 587478749                       # Number of integer regfile writes (Count)
system.cpu.fpRegfileReads                    62268572                       # Number of floating regfile reads (Count)
system.cpu.fpRegfileWrites                   16734840                       # Number of floating regfile writes (Count)
system.cpu.ccRegfileReads                   396149735                       # number of cc regfile reads (Count)
system.cpu.ccRegfileWrites                  307795299                       # number of cc regfile writes (Count)
system.cpu.miscRegfileReads                 288431431                       # number of misc regfile reads (Count)
system.cpu.miscRegfileWrites                       36                       # number of misc regfile writes (Count)
system.cpu.MemDepUnit__0.insertedLoads       82549110                       # Number of loads inserted to the mem dependence unit. (Count)
system.cpu.MemDepUnit__0.insertedStores      65244814                       # Number of stores inserted to the mem dependence unit. (Count)
system.cpu.MemDepUnit__0.conflictingLoads      4430602                       # Number of conflicting loads. (Count)
system.cpu.MemDepUnit__0.conflictingStores      4021393                       # Number of conflicting stores. (Count)
system.cpu.MemDepUnit__1.insertedLoads              0                       # Number of loads inserted to the mem dependence unit. (Count)
system.cpu.MemDepUnit__1.insertedStores             0                       # Number of stores inserted to the mem dependence unit. (Count)
system.cpu.MemDepUnit__1.conflictingLoads            0                       # Number of conflicting loads. (Count)
system.cpu.MemDepUnit__1.conflictingStores            0                       # Number of conflicting stores. (Count)
system.cpu.MemDepUnit__2.insertedLoads              0                       # Number of loads inserted to the mem dependence unit. (Count)
system.cpu.MemDepUnit__2.insertedStores             0                       # Number of stores inserted to the mem dependence unit. (Count)
system.cpu.MemDepUnit__2.conflictingLoads            0                       # Number of conflicting loads. (Count)
system.cpu.MemDepUnit__2.conflictingStores            0                       # Number of conflicting stores. (Count)
system.cpu.MemDepUnit__3.insertedLoads              0                       # Number of loads inserted to the mem dependence unit. (Count)
system.cpu.MemDepUnit__3.insertedStores             0                       # Number of stores inserted to the mem dependence unit. (Count)
system.cpu.MemDepUnit__3.conflictingLoads            0                       # Number of conflicting loads. (Count)
system.cpu.MemDepUnit__3.conflictingStores            0                       # Number of conflicting stores. (Count)
system.cpu.branchPred.lookups                72143721                       # Number of BP lookups (Count)
system.cpu.branchPred.condPredicted          50231644                       # Number of conditional branches predicted (Count)
system.cpu.branchPred.condIncorrect            357708                       # Number of conditional branches incorrect (Count)
system.cpu.branchPred.BTBLookups             33950547                       # Number of BTB lookups (Count)
system.cpu.branchPred.BTBHits                33851789                       # Number of BTB hits (Count)
system.cpu.branchPred.BTBHitRatio            0.997091                       # BTB Hit Ratio (Ratio)
system.cpu.branchPred.RASUsed                 8218204                       # Number of times the RAS was used to get a target. (Count)
system.cpu.branchPred.RASIncorrect                  1                       # Number of incorrect RAS predictions. (Count)
system.cpu.branchPred.indirectLookups         1418024                       # Number of indirect predictor lookups. (Count)
system.cpu.branchPred.indirectHits            1416179                       # Number of indirect target hits. (Count)
system.cpu.branchPred.indirectMisses             1845                       # Number of indirect misses. (Count)
system.cpu.branchPred.indirectMispredicted          422                       # Number of mispredicted indirect branches. (Count)
system.cpu.commit.commitSquashedInsts        12927551                       # The number of squashed insts skipped by commit (Count)
system.cpu.commit.commitNonSpecStalls              36                       # The number of times commit has been forced to stall to communicate backwards (Count)
system.cpu.commit.branchMispredicts            309840                       # The number of times a branch was mispredicted (Count)
system.cpu.commit.numCommittedDist::samples    205849584                       # Number of insts commited each cycle (Count)
system.cpu.commit.numCommittedDist::mean     3.700428                       # Number of insts commited each cycle (Count)
system.cpu.commit.numCommittedDist::stdev     2.955471                       # Number of insts commited each cycle (Count)
system.cpu.commit.numCommittedDist::underflows            0      0.00%      0.00% # Number of insts commited each cycle (Count)
system.cpu.commit.numCommittedDist::0        18119727      8.80%      8.80% # Number of insts commited each cycle (Count)
system.cpu.commit.numCommittedDist::1        51420770     24.98%     33.78% # Number of insts commited each cycle (Count)
system.cpu.commit.numCommittedDist::2        26650505     12.95%     46.73% # Number of insts commited each cycle (Count)
system.cpu.commit.numCommittedDist::3        28477040     13.83%     60.56% # Number of insts commited each cycle (Count)
system.cpu.commit.numCommittedDist::4         8927380      4.34%     64.90% # Number of insts commited each cycle (Count)
system.cpu.commit.numCommittedDist::5        10513125      5.11%     70.01% # Number of insts commited each cycle (Count)
system.cpu.commit.numCommittedDist::6         2376705      1.15%     71.16% # Number of insts commited each cycle (Count)
system.cpu.commit.numCommittedDist::7         5871430      2.85%     74.01% # Number of insts commited each cycle (Count)
system.cpu.commit.numCommittedDist::8        53492902     25.99%    100.00% # Number of insts commited each cycle (Count)
system.cpu.commit.numCommittedDist::overflows            0      0.00%    100.00% # Number of insts commited each cycle (Count)
system.cpu.commit.numCommittedDist::min_value            0                       # Number of insts commited each cycle (Count)
system.cpu.commit.numCommittedDist::max_value            8                       # Number of insts commited each cycle (Count)
system.cpu.commit.numCommittedDist::total    205849584                       # Number of insts commited each cycle (Count)
system.cpu.commit.instsCommitted            426048340                       # Number of instructions committed (Count)
system.cpu.commit.opsCommitted              761731501                       # Number of ops (including micro ops) committed (Count)
system.cpu.commit.memRefs                   146164017                       # Number of memory references committed (Count)
system.cpu.commit.loads                      81517748                       # Number of loads committed (Count)
system.cpu.commit.amos                              0                       # Number of atomic instructions committed (Count)
system.cpu.commit.membars                           0                       # Number of memory barriers committed (Count)
system.cpu.commit.branches                   69856145                       # Number of branches committed (Count)
system.cpu.commit.vectorInstructions                0                       # Number of committed Vector instructions. (Count)
system.cpu.commit.floating                   23025145                       # Number of committed floating point instructions. (Count)
system.cpu.commit.integer                   744570806                       # Number of committed integer instructions. (Count)
system.cpu.commit.functionCalls               7997347                       # Number of function calls committed. (Count)
system.cpu.commit.committedInstType_0::No_OpClass      2543128      0.33%      0.33% # Class of committed instruction (Count)
system.cpu.commit.committedInstType_0::IntAlu    585891460     76.92%     77.25% # Class of committed instruction (Count)
system.cpu.commit.committedInstType_0::IntMult     10670825      1.40%     78.65% # Class of committed instruction (Count)
system.cpu.commit.committedInstType_0::IntDiv      1331953      0.17%     78.83% # Class of committed instruction (Count)
system.cpu.commit.committedInstType_0::FloatAdd       704845      0.09%     78.92% # Class of committed instruction (Count)
system.cpu.commit.committedInstType_0::FloatCmp            0      0.00%     78.92% # Class of committed instruction (Count)
system.cpu.commit.committedInstType_0::FloatCvt           64      0.00%     78.92% # Class of committed instruction (Count)
system.cpu.commit.committedInstType_0::FloatMult            0      0.00%     78.92% # Class of committed instruction (Count)
system.cpu.commit.committedInstType_0::FloatMultAcc            0      0.00%     78.92% # Class of committed instruction (Count)
system.cpu.commit.committedInstType_0::FloatDiv            0      0.00%     78.92% # Class of committed instruction (Count)
system.cpu.commit.committedInstType_0::FloatMisc            0      0.00%     78.92% # Class of committed instruction (Count)
system.cpu.commit.committedInstType_0::FloatSqrt            0      0.00%     78.92% # Class of committed instruction (Count)
system.cpu.commit.committedInstType_0::SimdAdd            0      0.00%     78.92% # Class of committed instruction (Count)
system.cpu.commit.committedInstType_0::SimdAddAcc            0      0.00%     78.92% # Class of committed instruction (Count)
system.cpu.commit.committedInstType_0::SimdAlu      2725190      0.36%     79.28% # Class of committed instruction (Count)
system.cpu.commit.committedInstType_0::SimdCmp            0      0.00%     79.28% # Class of committed instruction (Count)
system.cpu.commit.committedInstType_0::SimdCvt      2537456      0.33%     79.61% # Class of committed instruction (Count)
system.cpu.commit.committedInstType_0::SimdMisc      7048249      0.93%     80.53% # Class of committed instruction (Count)
system.cpu.commit.committedInstType_0::SimdMult            0      0.00%     80.53% # Class of committed instruction (Count)
system.cpu.commit.committedInstType_0::SimdMultAcc            0      0.00%     80.53% # Class of committed instruction (Count)
system.cpu.commit.committedInstType_0::SimdShift            0      0.00%     80.53% # Class of committed instruction (Count)
system.cpu.commit.committedInstType_0::SimdShiftAcc            0      0.00%     80.53% # Class of committed instruction (Count)
system.cpu.commit.committedInstType_0::SimdDiv            0      0.00%     80.53% # Class of committed instruction (Count)
system.cpu.commit.committedInstType_0::SimdSqrt            0      0.00%     80.53% # Class of committed instruction (Count)
system.cpu.commit.committedInstType_0::SimdFloatAdd        46986      0.01%     80.54% # Class of committed instruction (Count)
system.cpu.commit.committedInstType_0::SimdFloatAlu            0      0.00%     80.54% # Class of committed instruction (Count)
system.cpu.commit.committedInstType_0::SimdFloatCmp            0      0.00%     80.54% # Class of committed instruction (Count)
system.cpu.commit.committedInstType_0::SimdFloatCvt      1033664      0.14%     80.68% # Class of committed instruction (Count)
system.cpu.commit.committedInstType_0::SimdFloatDiv        46986      0.01%     80.68% # Class of committed instruction (Count)
system.cpu.commit.committedInstType_0::SimdFloatMisc            0      0.00%     80.68% # Class of committed instruction (Count)
system.cpu.commit.committedInstType_0::SimdFloatMult       986678      0.13%     80.81% # Class of committed instruction (Count)
system.cpu.commit.committedInstType_0::SimdFloatMultAcc            0      0.00%     80.81% # Class of committed instruction (Count)
system.cpu.commit.committedInstType_0::SimdFloatSqrt            0      0.00%     80.81% # Class of committed instruction (Count)
system.cpu.commit.committedInstType_0::SimdReduceAdd            0      0.00%     80.81% # Class of committed instruction (Count)
system.cpu.commit.committedInstType_0::SimdReduceAlu            0      0.00%     80.81% # Class of committed instruction (Count)
system.cpu.commit.committedInstType_0::SimdReduceCmp            0      0.00%     80.81% # Class of committed instruction (Count)
system.cpu.commit.committedInstType_0::SimdFloatReduceAdd            0      0.00%     80.81% # Class of committed instruction (Count)
system.cpu.commit.committedInstType_0::SimdFloatReduceCmp            0      0.00%     80.81% # Class of committed instruction (Count)
system.cpu.commit.committedInstType_0::SimdAes            0      0.00%     80.81% # Class of committed instruction (Count)
system.cpu.commit.committedInstType_0::SimdAesMix            0      0.00%     80.81% # Class of committed instruction (Count)
system.cpu.commit.committedInstType_0::SimdSha1Hash            0      0.00%     80.81% # Class of committed instruction (Count)
system.cpu.commit.committedInstType_0::SimdSha1Hash2            0      0.00%     80.81% # Class of committed instruction (Count)
system.cpu.commit.committedInstType_0::SimdSha256Hash            0      0.00%     80.81% # Class of committed instruction (Count)
system.cpu.commit.committedInstType_0::SimdSha256Hash2            0      0.00%     80.81% # Class of committed instruction (Count)
system.cpu.commit.committedInstType_0::SimdShaSigma2            0      0.00%     80.81% # Class of committed instruction (Count)
system.cpu.commit.committedInstType_0::SimdShaSigma3            0      0.00%     80.81% # Class of committed instruction (Count)
system.cpu.commit.committedInstType_0::SimdPredAlu            0      0.00%     80.81% # Class of committed instruction (Count)
system.cpu.commit.committedInstType_0::MemRead     78932848     10.36%     91.17% # Class of committed instruction (Count)
system.cpu.commit.committedInstType_0::MemWrite     61121733      8.02%     99.20% # Class of committed instruction (Count)
system.cpu.commit.committedInstType_0::FloatMemRead      2584900      0.34%     99.54% # Class of committed instruction (Count)
system.cpu.commit.committedInstType_0::FloatMemWrite      3524536      0.46%    100.00% # Class of committed instruction (Count)
system.cpu.commit.committedInstType_0::IprAccess            0      0.00%    100.00% # Class of committed instruction (Count)
system.cpu.commit.committedInstType_0::InstPrefetch            0      0.00%    100.00% # Class of committed instruction (Count)
system.cpu.commit.committedInstType_0::total    761731501                       # Class of committed instruction (Count)
system.cpu.commit.commitEligibleSamples      53492902                       # number cycles where commit BW limit reached (Cycle)
system.cpu.dcache.demandHits::cpu.data      126438031                       # number of demand (read+write) hits (Count)
system.cpu.dcache.demandHits::total         126438031                       # number of demand (read+write) hits (Count)
system.cpu.dcache.overallHits::cpu.data     126438031                       # number of overall hits (Count)
system.cpu.dcache.overallHits::total        126438031                       # number of overall hits (Count)
system.cpu.dcache.demandMisses::cpu.data         5161                       # number of demand (read+write) misses (Count)
system.cpu.dcache.demandMisses::total            5161                       # number of demand (read+write) misses (Count)
system.cpu.dcache.overallMisses::cpu.data         5161                       # number of overall misses (Count)
system.cpu.dcache.overallMisses::total           5161                       # number of overall misses (Count)
system.cpu.dcache.demandMissLatency::cpu.data    297204989                       # number of demand (read+write) miss ticks (Tick)
system.cpu.dcache.demandMissLatency::total    297204989                       # number of demand (read+write) miss ticks (Tick)
system.cpu.dcache.overallMissLatency::cpu.data    297204989                       # number of overall miss ticks (Tick)
system.cpu.dcache.overallMissLatency::total    297204989                       # number of overall miss ticks (Tick)
system.cpu.dcache.demandAccesses::cpu.data    126443192                       # number of demand (read+write) accesses (Count)
system.cpu.dcache.demandAccesses::total     126443192                       # number of demand (read+write) accesses (Count)
system.cpu.dcache.overallAccesses::cpu.data    126443192                       # number of overall (read+write) accesses (Count)
system.cpu.dcache.overallAccesses::total    126443192                       # number of overall (read+write) accesses (Count)
system.cpu.dcache.demandMissRate::cpu.data     0.000041                       # miss rate for demand accesses (Ratio)
system.cpu.dcache.demandMissRate::total      0.000041                       # miss rate for demand accesses (Ratio)
system.cpu.dcache.overallMissRate::cpu.data     0.000041                       # miss rate for overall accesses (Ratio)
system.cpu.dcache.overallMissRate::total     0.000041                       # miss rate for overall accesses (Ratio)
system.cpu.dcache.demandAvgMissLatency::cpu.data 57586.705871                       # average overall miss latency in ticks ((Tick/Count))
system.cpu.dcache.demandAvgMissLatency::total 57586.705871                       # average overall miss latency in ticks ((Tick/Count))
system.cpu.dcache.overallAvgMissLatency::cpu.data 57586.705871                       # average overall miss latency ((Tick/Count))
system.cpu.dcache.overallAvgMissLatency::total 57586.705871                       # average overall miss latency ((Tick/Count))
system.cpu.dcache.blockedCycles::no_mshrs        14107                       # number of cycles access was blocked (Cycle)
system.cpu.dcache.blockedCycles::no_targets            0                       # number of cycles access was blocked (Cycle)
system.cpu.dcache.blockedCauses::no_mshrs          276                       # number of times access was blocked (Count)
system.cpu.dcache.blockedCauses::no_targets            0                       # number of times access was blocked (Count)
system.cpu.dcache.avgBlocked::no_mshrs      51.112319                       # average number of cycles each access was blocked ((Cycle/Count))
system.cpu.dcache.avgBlocked::no_targets          nan                       # average number of cycles each access was blocked ((Cycle/Count))
system.cpu.dcache.writebacks::writebacks          468                       # number of writebacks (Count)
system.cpu.dcache.writebacks::total               468                       # number of writebacks (Count)
system.cpu.dcache.demandMshrHits::cpu.data         3154                       # number of demand (read+write) MSHR hits (Count)
system.cpu.dcache.demandMshrHits::total          3154                       # number of demand (read+write) MSHR hits (Count)
system.cpu.dcache.overallMshrHits::cpu.data         3154                       # number of overall MSHR hits (Count)
system.cpu.dcache.overallMshrHits::total         3154                       # number of overall MSHR hits (Count)
system.cpu.dcache.demandMshrMisses::cpu.data         2007                       # number of demand (read+write) MSHR misses (Count)
system.cpu.dcache.demandMshrMisses::total         2007                       # number of demand (read+write) MSHR misses (Count)
system.cpu.dcache.overallMshrMisses::cpu.data         2007                       # number of overall MSHR misses (Count)
system.cpu.dcache.overallMshrMisses::total         2007                       # number of overall MSHR misses (Count)
system.cpu.dcache.demandMshrMissLatency::cpu.data    126636989                       # number of demand (read+write) MSHR miss ticks (Tick)
system.cpu.dcache.demandMshrMissLatency::total    126636989                       # number of demand (read+write) MSHR miss ticks (Tick)
system.cpu.dcache.overallMshrMissLatency::cpu.data    126636989                       # number of overall MSHR miss ticks (Tick)
system.cpu.dcache.overallMshrMissLatency::total    126636989                       # number of overall MSHR miss ticks (Tick)
system.cpu.dcache.demandMshrMissRate::cpu.data     0.000016                       # mshr miss ratio for demand accesses (Ratio)
system.cpu.dcache.demandMshrMissRate::total     0.000016                       # mshr miss ratio for demand accesses (Ratio)
system.cpu.dcache.overallMshrMissRate::cpu.data     0.000016                       # mshr miss ratio for overall accesses (Ratio)
system.cpu.dcache.overallMshrMissRate::total     0.000016                       # mshr miss ratio for overall accesses (Ratio)
system.cpu.dcache.demandAvgMshrMissLatency::cpu.data 63097.652715                       # average overall mshr miss latency ((Tick/Count))
system.cpu.dcache.demandAvgMshrMissLatency::total 63097.652715                       # average overall mshr miss latency ((Tick/Count))
system.cpu.dcache.overallAvgMshrMissLatency::cpu.data 63097.652715                       # average overall mshr miss latency ((Tick/Count))
system.cpu.dcache.overallAvgMshrMissLatency::total 63097.652715                       # average overall mshr miss latency ((Tick/Count))
system.cpu.dcache.replacements                   1495                       # number of replacements (Count)
system.cpu.dcache.ReadReq.hits::cpu.data     61595763                       # number of ReadReq hits (Count)
system.cpu.dcache.ReadReq.hits::total        61595763                       # number of ReadReq hits (Count)
system.cpu.dcache.ReadReq.misses::cpu.data         4468                       # number of ReadReq misses (Count)
system.cpu.dcache.ReadReq.misses::total          4468                       # number of ReadReq misses (Count)
system.cpu.dcache.ReadReq.missLatency::cpu.data    255364500                       # number of ReadReq miss ticks (Tick)
system.cpu.dcache.ReadReq.missLatency::total    255364500                       # number of ReadReq miss ticks (Tick)
system.cpu.dcache.ReadReq.accesses::cpu.data     61600231                       # number of ReadReq accesses(hits+misses) (Count)
system.cpu.dcache.ReadReq.accesses::total     61600231                       # number of ReadReq accesses(hits+misses) (Count)
system.cpu.dcache.ReadReq.missRate::cpu.data     0.000073                       # miss rate for ReadReq accesses (Ratio)
system.cpu.dcache.ReadReq.missRate::total     0.000073                       # miss rate for ReadReq accesses (Ratio)
system.cpu.dcache.ReadReq.avgMissLatency::cpu.data 57154.095792                       # average ReadReq miss latency ((Tick/Count))
system.cpu.dcache.ReadReq.avgMissLatency::total 57154.095792                       # average ReadReq miss latency ((Tick/Count))
system.cpu.dcache.ReadReq.mshrHits::cpu.data         3147                       # number of ReadReq MSHR hits (Count)
system.cpu.dcache.ReadReq.mshrHits::total         3147                       # number of ReadReq MSHR hits (Count)
system.cpu.dcache.ReadReq.mshrMisses::cpu.data         1321                       # number of ReadReq MSHR misses (Count)
system.cpu.dcache.ReadReq.mshrMisses::total         1321                       # number of ReadReq MSHR misses (Count)
system.cpu.dcache.ReadReq.mshrMissLatency::cpu.data     85703500                       # number of ReadReq MSHR miss ticks (Tick)
system.cpu.dcache.ReadReq.mshrMissLatency::total     85703500                       # number of ReadReq MSHR miss ticks (Tick)
system.cpu.dcache.ReadReq.mshrMissRate::cpu.data     0.000021                       # mshr miss rate for ReadReq accesses (Ratio)
system.cpu.dcache.ReadReq.mshrMissRate::total     0.000021                       # mshr miss rate for ReadReq accesses (Ratio)
system.cpu.dcache.ReadReq.avgMshrMissLatency::cpu.data 64877.744133                       # average ReadReq mshr miss latency ((Tick/Count))
system.cpu.dcache.ReadReq.avgMshrMissLatency::total 64877.744133                       # average ReadReq mshr miss latency ((Tick/Count))
system.cpu.dcache.WriteReq.hits::cpu.data     64842268                       # number of WriteReq hits (Count)
system.cpu.dcache.WriteReq.hits::total       64842268                       # number of WriteReq hits (Count)
system.cpu.dcache.WriteReq.misses::cpu.data          693                       # number of WriteReq misses (Count)
system.cpu.dcache.WriteReq.misses::total          693                       # number of WriteReq misses (Count)
system.cpu.dcache.WriteReq.missLatency::cpu.data     41840489                       # number of WriteReq miss ticks (Tick)
system.cpu.dcache.WriteReq.missLatency::total     41840489                       # number of WriteReq miss ticks (Tick)
system.cpu.dcache.WriteReq.accesses::cpu.data     64842961                       # number of WriteReq accesses(hits+misses) (Count)
system.cpu.dcache.WriteReq.accesses::total     64842961                       # number of WriteReq accesses(hits+misses) (Count)
system.cpu.dcache.WriteReq.missRate::cpu.data     0.000011                       # miss rate for WriteReq accesses (Ratio)
system.cpu.dcache.WriteReq.missRate::total     0.000011                       # miss rate for WriteReq accesses (Ratio)
system.cpu.dcache.WriteReq.avgMissLatency::cpu.data 60375.886003                       # average WriteReq miss latency ((Tick/Count))
system.cpu.dcache.WriteReq.avgMissLatency::total 60375.886003                       # average WriteReq miss latency ((Tick/Count))
system.cpu.dcache.WriteReq.mshrHits::cpu.data            7                       # number of WriteReq MSHR hits (Count)
system.cpu.dcache.WriteReq.mshrHits::total            7                       # number of WriteReq MSHR hits (Count)
system.cpu.dcache.WriteReq.mshrMisses::cpu.data          686                       # number of WriteReq MSHR misses (Count)
system.cpu.dcache.WriteReq.mshrMisses::total          686                       # number of WriteReq MSHR misses (Count)
system.cpu.dcache.WriteReq.mshrMissLatency::cpu.data     40933489                       # number of WriteReq MSHR miss ticks (Tick)
system.cpu.dcache.WriteReq.mshrMissLatency::total     40933489                       # number of WriteReq MSHR miss ticks (Tick)
system.cpu.dcache.WriteReq.mshrMissRate::cpu.data     0.000011                       # mshr miss rate for WriteReq accesses (Ratio)
system.cpu.dcache.WriteReq.mshrMissRate::total     0.000011                       # mshr miss rate for WriteReq accesses (Ratio)
system.cpu.dcache.WriteReq.avgMshrMissLatency::cpu.data 59669.809038                       # average WriteReq mshr miss latency ((Tick/Count))
system.cpu.dcache.WriteReq.avgMshrMissLatency::total 59669.809038                       # average WriteReq mshr miss latency ((Tick/Count))
system.cpu.dcache.power_state.pwrStateResidencyTicks::UNDEFINED 103939931000                       # Cumulative time (in ticks) in various power states (Tick)
system.cpu.dcache.tags.tagsInUse           511.877765                       # Average ticks per tags in use ((Tick/Count))
system.cpu.dcache.tags.totalRefs            126440038                       # Total number of references to valid blocks. (Count)
system.cpu.dcache.tags.sampledRefs               2007                       # Sample count of references to valid blocks. (Count)
system.cpu.dcache.tags.avgRefs           62999.520678                       # Average number of references to valid blocks. ((Count/Count))
system.cpu.dcache.tags.warmupTick              148000                       # The tick when the warmup percentage was hit. (Tick)
system.cpu.dcache.tags.occupancies::cpu.data   511.877765                       # Average occupied blocks per tick, per requestor ((Count/Tick))
system.cpu.dcache.tags.avgOccs::cpu.data     0.999761                       # Average percentage of cache occupancy ((Ratio/Tick))
system.cpu.dcache.tags.avgOccs::total        0.999761                       # Average percentage of cache occupancy ((Ratio/Tick))
system.cpu.dcache.tags.occupanciesTaskId::1024          512                       # Occupied blocks per task id (Count)
system.cpu.dcache.tags.ageTaskId_1024::0           22                       # Occupied blocks per task id, per block age (Count)
system.cpu.dcache.tags.ageTaskId_1024::4          490                       # Occupied blocks per task id, per block age (Count)
system.cpu.dcache.tags.ratioOccsTaskId::1024            1                       # Ratio of occupied blocks and all blocks, per task id (Ratio)
system.cpu.dcache.tags.tagAccesses         1011547543                       # Number of tag accesses (Count)
system.cpu.dcache.tags.dataAccesses        1011547543                       # Number of data accesses (Count)
system.cpu.dcache.tags.power_state.pwrStateResidencyTicks::UNDEFINED 103939931000                       # Cumulative time (in ticks) in various power states (Tick)
system.cpu.decode.idleCycles                 49108678                       # Number of cycles decode is idle (Cycle)
system.cpu.decode.blockedCycles              39438885                       # Number of cycles decode is blocked (Cycle)
system.cpu.decode.runCycles                 102325055                       # Number of cycles decode is running (Cycle)
system.cpu.decode.unblockCycles              16619419                       # Number of cycles decode is unblocking (Cycle)
system.cpu.decode.squashCycles                 318239                       # Number of cycles decode is squashing (Cycle)
system.cpu.decode.branchResolved             33733229                       # Number of times decode resolved a branch (Count)
system.cpu.decode.branchMispred                 48246                       # Number of times decode detected a branch misprediction (Count)
system.cpu.decode.decodedInsts              778134994                       # Number of instructions handled by decode (Count)
system.cpu.decode.squashedInsts                380529                       # Number of squashed instructions handled by decode (Count)
system.cpu.dtb_walker_cache.blockedCycles::no_mshrs            0                       # number of cycles access was blocked (Cycle)
system.cpu.dtb_walker_cache.blockedCycles::no_targets            0                       # number of cycles access was blocked (Cycle)
system.cpu.dtb_walker_cache.blockedCauses::no_mshrs            0                       # number of times access was blocked (Count)
system.cpu.dtb_walker_cache.blockedCauses::no_targets            0                       # number of times access was blocked (Count)
system.cpu.dtb_walker_cache.avgBlocked::no_mshrs          nan                       # average number of cycles each access was blocked ((Cycle/Count))
system.cpu.dtb_walker_cache.avgBlocked::no_targets          nan                       # average number of cycles each access was blocked ((Cycle/Count))
system.cpu.dtb_walker_cache.replacements            0                       # number of replacements (Count)
system.cpu.dtb_walker_cache.power_state.pwrStateResidencyTicks::UNDEFINED 103939931000                       # Cumulative time (in ticks) in various power states (Tick)
system.cpu.dtb_walker_cache.tags.tagsInUse            0                       # Average ticks per tags in use ((Tick/Count))
system.cpu.dtb_walker_cache.tags.totalRefs            0                       # Total number of references to valid blocks. (Count)
system.cpu.dtb_walker_cache.tags.sampledRefs            0                       # Sample count of references to valid blocks. (Count)
system.cpu.dtb_walker_cache.tags.avgRefs          nan                       # Average number of references to valid blocks. ((Count/Count))
system.cpu.dtb_walker_cache.tags.warmupTick            0                       # The tick when the warmup percentage was hit. (Tick)
system.cpu.dtb_walker_cache.tags.tagAccesses            0                       # Number of tag accesses (Count)
system.cpu.dtb_walker_cache.tags.dataAccesses            0                       # Number of data accesses (Count)
system.cpu.dtb_walker_cache.tags.power_state.pwrStateResidencyTicks::UNDEFINED 103939931000                       # Cumulative time (in ticks) in various power states (Tick)
system.cpu.fetch.icacheStallCycles           59947976                       # Number of cycles fetch is stalled on an Icache miss (Cycle)
system.cpu.fetch.insts                      437781093                       # Number of instructions fetch has processed (Count)
system.cpu.fetch.branches                    72143721                       # Number of branches that fetch encountered (Count)
system.cpu.fetch.predictedBranches           43486172                       # Number of branches that fetch has predicted taken (Count)
system.cpu.fetch.cycles                     147492718                       # Number of cycles fetch has run and was not squashing or blocked (Cycle)
system.cpu.fetch.squashCycles                  732914                       # Number of cycles fetch has spent squashing (Cycle)
system.cpu.fetch.miscStallCycles                  376                       # Number of cycles fetch has spent waiting on interrupts, or bad addresses, or out of MSHRs (Cycle)
system.cpu.fetch.pendingTrapStallCycles          2749                       # Number of stall cycles due to pending traps (Cycle)
system.cpu.fetch.cacheLines                  59607671                       # Number of cache lines fetched (Count)
system.cpu.fetch.icacheSquashes                 55364                       # Number of outstanding Icache misses that were squashed (Count)
system.cpu.fetch.nisnDist::samples          207810276                       # Number of instructions fetched each cycle (Total) (Count)
system.cpu.fetch.nisnDist::mean              3.762673                       # Number of instructions fetched each cycle (Total) (Count)
system.cpu.fetch.nisnDist::stdev             3.469135                       # Number of instructions fetched each cycle (Total) (Count)
system.cpu.fetch.nisnDist::underflows               0      0.00%      0.00% # Number of instructions fetched each cycle (Total) (Count)
system.cpu.fetch.nisnDist::0                 77893181     37.48%     37.48% # Number of instructions fetched each cycle (Total) (Count)
system.cpu.fetch.nisnDist::1                  8589799      4.13%     41.62% # Number of instructions fetched each cycle (Total) (Count)
system.cpu.fetch.nisnDist::2                  5539317      2.67%     44.28% # Number of instructions fetched each cycle (Total) (Count)
system.cpu.fetch.nisnDist::3                 13227764      6.37%     50.65% # Number of instructions fetched each cycle (Total) (Count)
system.cpu.fetch.nisnDist::4                  9658546      4.65%     55.29% # Number of instructions fetched each cycle (Total) (Count)
system.cpu.fetch.nisnDist::5                 10262916      4.94%     60.23% # Number of instructions fetched each cycle (Total) (Count)
system.cpu.fetch.nisnDist::6                 10315951      4.96%     65.20% # Number of instructions fetched each cycle (Total) (Count)
system.cpu.fetch.nisnDist::7                  7856553      3.78%     68.98% # Number of instructions fetched each cycle (Total) (Count)
system.cpu.fetch.nisnDist::8                 64466249     31.02%    100.00% # Number of instructions fetched each cycle (Total) (Count)
system.cpu.fetch.nisnDist::overflows                0      0.00%    100.00% # Number of instructions fetched each cycle (Total) (Count)
system.cpu.fetch.nisnDist::min_value                0                       # Number of instructions fetched each cycle (Total) (Count)
system.cpu.fetch.nisnDist::max_value                8                       # Number of instructions fetched each cycle (Total) (Count)
system.cpu.fetch.nisnDist::total            207810276                       # Number of instructions fetched each cycle (Total) (Count)
system.cpu.fetch.branchRate                  0.347045                       # Number of branch fetches per cycle (Ratio)
system.cpu.fetch.rate                        2.105933                       # Number of inst fetches per cycle ((Count/Cycle))
system.cpu.icache.demandHits::cpu.inst       59606011                       # number of demand (read+write) hits (Count)
system.cpu.icache.demandHits::total          59606011                       # number of demand (read+write) hits (Count)
system.cpu.icache.overallHits::cpu.inst      59606011                       # number of overall hits (Count)
system.cpu.icache.overallHits::total         59606011                       # number of overall hits (Count)
system.cpu.icache.demandMisses::cpu.inst         1660                       # number of demand (read+write) misses (Count)
system.cpu.icache.demandMisses::total            1660                       # number of demand (read+write) misses (Count)
system.cpu.icache.overallMisses::cpu.inst         1660                       # number of overall misses (Count)
system.cpu.icache.overallMisses::total           1660                       # number of overall misses (Count)
system.cpu.icache.demandMissLatency::cpu.inst     95538000                       # number of demand (read+write) miss ticks (Tick)
system.cpu.icache.demandMissLatency::total     95538000                       # number of demand (read+write) miss ticks (Tick)
system.cpu.icache.overallMissLatency::cpu.inst     95538000                       # number of overall miss ticks (Tick)
system.cpu.icache.overallMissLatency::total     95538000                       # number of overall miss ticks (Tick)
system.cpu.icache.demandAccesses::cpu.inst     59607671                       # number of demand (read+write) accesses (Count)
system.cpu.icache.demandAccesses::total      59607671                       # number of demand (read+write) accesses (Count)
system.cpu.icache.overallAccesses::cpu.inst     59607671                       # number of overall (read+write) accesses (Count)
system.cpu.icache.overallAccesses::total     59607671                       # number of overall (read+write) accesses (Count)
system.cpu.icache.demandMissRate::cpu.inst     0.000028                       # miss rate for demand accesses (Ratio)
system.cpu.icache.demandMissRate::total      0.000028                       # miss rate for demand accesses (Ratio)
system.cpu.icache.overallMissRate::cpu.inst     0.000028                       # miss rate for overall accesses (Ratio)
system.cpu.icache.overallMissRate::total     0.000028                       # miss rate for overall accesses (Ratio)
system.cpu.icache.demandAvgMissLatency::cpu.inst 57553.012048                       # average overall miss latency in ticks ((Tick/Count))
system.cpu.icache.demandAvgMissLatency::total 57553.012048                       # average overall miss latency in ticks ((Tick/Count))
system.cpu.icache.overallAvgMissLatency::cpu.inst 57553.012048                       # average overall miss latency ((Tick/Count))
system.cpu.icache.overallAvgMissLatency::total 57553.012048                       # average overall miss latency ((Tick/Count))
system.cpu.icache.blockedCycles::no_mshrs           23                       # number of cycles access was blocked (Cycle)
system.cpu.icache.blockedCycles::no_targets            0                       # number of cycles access was blocked (Cycle)
system.cpu.icache.blockedCauses::no_mshrs            1                       # number of times access was blocked (Count)
system.cpu.icache.blockedCauses::no_targets            0                       # number of times access was blocked (Count)
system.cpu.icache.avgBlocked::no_mshrs             23                       # average number of cycles each access was blocked ((Cycle/Count))
system.cpu.icache.avgBlocked::no_targets          nan                       # average number of cycles each access was blocked ((Cycle/Count))
system.cpu.icache.writebacks::writebacks          699                       # number of writebacks (Count)
system.cpu.icache.writebacks::total               699                       # number of writebacks (Count)
system.cpu.icache.demandMshrHits::cpu.inst          448                       # number of demand (read+write) MSHR hits (Count)
system.cpu.icache.demandMshrHits::total           448                       # number of demand (read+write) MSHR hits (Count)
system.cpu.icache.overallMshrHits::cpu.inst          448                       # number of overall MSHR hits (Count)
system.cpu.icache.overallMshrHits::total          448                       # number of overall MSHR hits (Count)
system.cpu.icache.demandMshrMisses::cpu.inst         1212                       # number of demand (read+write) MSHR misses (Count)
system.cpu.icache.demandMshrMisses::total         1212                       # number of demand (read+write) MSHR misses (Count)
system.cpu.icache.overallMshrMisses::cpu.inst         1212                       # number of overall MSHR misses (Count)
system.cpu.icache.overallMshrMisses::total         1212                       # number of overall MSHR misses (Count)
system.cpu.icache.demandMshrMissLatency::cpu.inst     74172000                       # number of demand (read+write) MSHR miss ticks (Tick)
system.cpu.icache.demandMshrMissLatency::total     74172000                       # number of demand (read+write) MSHR miss ticks (Tick)
system.cpu.icache.overallMshrMissLatency::cpu.inst     74172000                       # number of overall MSHR miss ticks (Tick)
system.cpu.icache.overallMshrMissLatency::total     74172000                       # number of overall MSHR miss ticks (Tick)
system.cpu.icache.demandMshrMissRate::cpu.inst     0.000020                       # mshr miss ratio for demand accesses (Ratio)
system.cpu.icache.demandMshrMissRate::total     0.000020                       # mshr miss ratio for demand accesses (Ratio)
system.cpu.icache.overallMshrMissRate::cpu.inst     0.000020                       # mshr miss ratio for overall accesses (Ratio)
system.cpu.icache.overallMshrMissRate::total     0.000020                       # mshr miss ratio for overall accesses (Ratio)
system.cpu.icache.demandAvgMshrMissLatency::cpu.inst 61198.019802                       # average overall mshr miss latency ((Tick/Count))
system.cpu.icache.demandAvgMshrMissLatency::total 61198.019802                       # average overall mshr miss latency ((Tick/Count))
system.cpu.icache.overallAvgMshrMissLatency::cpu.inst 61198.019802                       # average overall mshr miss latency ((Tick/Count))
system.cpu.icache.overallAvgMshrMissLatency::total 61198.019802                       # average overall mshr miss latency ((Tick/Count))
system.cpu.icache.replacements                    699                       # number of replacements (Count)
system.cpu.icache.ReadReq.hits::cpu.inst     59606011                       # number of ReadReq hits (Count)
system.cpu.icache.ReadReq.hits::total        59606011                       # number of ReadReq hits (Count)
system.cpu.icache.ReadReq.misses::cpu.inst         1660                       # number of ReadReq misses (Count)
system.cpu.icache.ReadReq.misses::total          1660                       # number of ReadReq misses (Count)
system.cpu.icache.ReadReq.missLatency::cpu.inst     95538000                       # number of ReadReq miss ticks (Tick)
system.cpu.icache.ReadReq.missLatency::total     95538000                       # number of ReadReq miss ticks (Tick)
system.cpu.icache.ReadReq.accesses::cpu.inst     59607671                       # number of ReadReq accesses(hits+misses) (Count)
system.cpu.icache.ReadReq.accesses::total     59607671                       # number of ReadReq accesses(hits+misses) (Count)
system.cpu.icache.ReadReq.missRate::cpu.inst     0.000028                       # miss rate for ReadReq accesses (Ratio)
system.cpu.icache.ReadReq.missRate::total     0.000028                       # miss rate for ReadReq accesses (Ratio)
system.cpu.icache.ReadReq.avgMissLatency::cpu.inst 57553.012048                       # average ReadReq miss latency ((Tick/Count))
system.cpu.icache.ReadReq.avgMissLatency::total 57553.012048                       # average ReadReq miss latency ((Tick/Count))
system.cpu.icache.ReadReq.mshrHits::cpu.inst          448                       # number of ReadReq MSHR hits (Count)
system.cpu.icache.ReadReq.mshrHits::total          448                       # number of ReadReq MSHR hits (Count)
system.cpu.icache.ReadReq.mshrMisses::cpu.inst         1212                       # number of ReadReq MSHR misses (Count)
system.cpu.icache.ReadReq.mshrMisses::total         1212                       # number of ReadReq MSHR misses (Count)
system.cpu.icache.ReadReq.mshrMissLatency::cpu.inst     74172000                       # number of ReadReq MSHR miss ticks (Tick)
system.cpu.icache.ReadReq.mshrMissLatency::total     74172000                       # number of ReadReq MSHR miss ticks (Tick)
system.cpu.icache.ReadReq.mshrMissRate::cpu.inst     0.000020                       # mshr miss rate for ReadReq accesses (Ratio)
system.cpu.icache.ReadReq.mshrMissRate::total     0.000020                       # mshr miss rate for ReadReq accesses (Ratio)
system.cpu.icache.ReadReq.avgMshrMissLatency::cpu.inst 61198.019802                       # average ReadReq mshr miss latency ((Tick/Count))
system.cpu.icache.ReadReq.avgMshrMissLatency::total 61198.019802                       # average ReadReq mshr miss latency ((Tick/Count))
system.cpu.icache.power_state.pwrStateResidencyTicks::UNDEFINED 103939931000                       # Cumulative time (in ticks) in various power states (Tick)
system.cpu.icache.tags.tagsInUse           511.901334                       # Average ticks per tags in use ((Tick/Count))
system.cpu.icache.tags.totalRefs             59607222                       # Total number of references to valid blocks. (Count)
system.cpu.icache.tags.sampledRefs               1211                       # Sample count of references to valid blocks. (Count)
system.cpu.icache.tags.avgRefs           49221.488026                       # Average number of references to valid blocks. ((Count/Count))
system.cpu.icache.tags.warmupTick               77000                       # The tick when the warmup percentage was hit. (Tick)
system.cpu.icache.tags.occupancies::cpu.inst   511.901334                       # Average occupied blocks per tick, per requestor ((Count/Tick))
system.cpu.icache.tags.avgOccs::cpu.inst     0.999807                       # Average percentage of cache occupancy ((Ratio/Tick))
system.cpu.icache.tags.avgOccs::total        0.999807                       # Average percentage of cache occupancy ((Ratio/Tick))
system.cpu.icache.tags.occupanciesTaskId::1024          512                       # Occupied blocks per task id (Count)
system.cpu.icache.tags.ageTaskId_1024::0           61                       # Occupied blocks per task id, per block age (Count)
system.cpu.icache.tags.ageTaskId_1024::4          451                       # Occupied blocks per task id, per block age (Count)
system.cpu.icache.tags.ratioOccsTaskId::1024            1                       # Ratio of occupied blocks and all blocks, per task id (Ratio)
system.cpu.icache.tags.tagAccesses          476862579                       # Number of tag accesses (Count)
system.cpu.icache.tags.dataAccesses         476862579                       # Number of data accesses (Count)
system.cpu.icache.tags.power_state.pwrStateResidencyTicks::UNDEFINED 103939931000                       # Cumulative time (in ticks) in various power states (Tick)
system.cpu.iew.reusedInsts                   54568837                       # Number of instructions reused (Cycle)
system.cpu.iew.reusedFloatInsts               5662355                       # Number of float instructions reused (Cycle)
system.cpu.iew.reusedIntInsts                48906482                       # Number of int instructions reused (Cycle)
system.cpu.iew.reusedVecInsts                       0                       # Number of vector instructions reused (Cycle)
system.cpu.iew.idleCycles                           0                       # Number of cycles IEW is idle (Cycle)
system.cpu.iew.squashCycles                    318239                       # Number of cycles IEW is squashing (Cycle)
system.cpu.iew.blockCycles                    1679172                       # Number of cycles IEW is blocking (Cycle)
system.cpu.iew.unblockCycles                     5153                       # Number of cycles IEW is unblocking (Cycle)
system.cpu.iew.dispatchedInsts              774744944                       # Number of instructions dispatched to IQ (Count)
system.cpu.iew.dispSquashedInsts                15602                       # Number of squashed instructions skipped by dispatch (Count)
system.cpu.iew.dispLoadInsts                 82549110                       # Number of dispatched load instructions (Count)
system.cpu.iew.dispStoreInsts                65244814                       # Number of dispatched store instructions (Count)
system.cpu.iew.dispNonSpecInsts                    60                       # Number of dispatched non-speculative instructions (Count)
system.cpu.iew.iqFullEvents                       285                       # Number of times the IQ has become full, causing a stall (Count)
system.cpu.iew.lsqFullEvents                     4629                       # Number of times the LSQ has become full, causing a stall (Count)
system.cpu.iew.memOrderViolationEvents           6475                       # Number of memory order violations (Count)
system.cpu.iew.predictedTakenIncorrect         158749                       # Number of branches that were predicted taken incorrectly (Count)
system.cpu.iew.predictedNotTakenIncorrect       154948                       # Number of branches that were predicted not taken incorrectly (Count)
system.cpu.iew.branchMispredicts               313697                       # Number of branch mispredicts detected at execute (Count)
system.cpu.iew.instsToCommit                769626588                       # Cumulative count of insts sent to commit (Count)
system.cpu.iew.writebackCount               769566045                       # Cumulative count of insts written-back (Count)
system.cpu.iew.producerInst                 568727755                       # Number of instructions producing a value (Count)
system.cpu.iew.consumerInst                1036772390                       # Number of instructions consuming a value (Count)
system.cpu.iew.wbRate                        3.701975                       # Insts written-back per cycle ((Count/Cycle))
system.cpu.iew.wbFanout                      0.548556                       # Average fanout of values written-back ((Count/Count))
system.cpu.interrupts.clk_domain.clock           8000                       # Clock period in ticks (Tick)
system.cpu.itb_walker_cache.blockedCycles::no_mshrs            0                       # number of cycles access was blocked (Cycle)
system.cpu.itb_walker_cache.blockedCycles::no_targets            0                       # number of cycles access was blocked (Cycle)
system.cpu.itb_walker_cache.blockedCauses::no_mshrs            0                       # number of times access was blocked (Count)
system.cpu.itb_walker_cache.blockedCauses::no_targets            0                       # number of times access was blocked (Count)
system.cpu.itb_walker_cache.avgBlocked::no_mshrs          nan                       # average number of cycles each access was blocked ((Cycle/Count))
system.cpu.itb_walker_cache.avgBlocked::no_targets          nan                       # average number of cycles each access was blocked ((Cycle/Count))
system.cpu.itb_walker_cache.replacements            0                       # number of replacements (Count)
system.cpu.itb_walker_cache.power_state.pwrStateResidencyTicks::UNDEFINED 103939931000                       # Cumulative time (in ticks) in various power states (Tick)
system.cpu.itb_walker_cache.tags.tagsInUse            0                       # Average ticks per tags in use ((Tick/Count))
system.cpu.itb_walker_cache.tags.totalRefs            0                       # Total number of references to valid blocks. (Count)
system.cpu.itb_walker_cache.tags.sampledRefs            0                       # Sample count of references to valid blocks. (Count)
system.cpu.itb_walker_cache.tags.avgRefs          nan                       # Average number of references to valid blocks. ((Count/Count))
system.cpu.itb_walker_cache.tags.warmupTick            0                       # The tick when the warmup percentage was hit. (Tick)
system.cpu.itb_walker_cache.tags.tagAccesses            0                       # Number of tag accesses (Count)
system.cpu.itb_walker_cache.tags.dataAccesses            0                       # Number of data accesses (Count)
system.cpu.itb_walker_cache.tags.power_state.pwrStateResidencyTicks::UNDEFINED 103939931000                       # Cumulative time (in ticks) in various power states (Tick)
system.cpu.lsq0.forwLoads                    20769378                       # Number of loads that had data forwarded from stores (Count)
system.cpu.lsq0.squashedLoads                 1031362                       # Number of loads squashed (Count)
system.cpu.lsq0.ignoredResponses                 1100                       # Number of memory responses ignored because the instruction is squashed (Count)
system.cpu.lsq0.memOrderViolation                6475                       # Number of memory ordering violations (Count)
system.cpu.lsq0.squashedStores                 598545                       # Number of stores squashed (Count)
system.cpu.lsq0.rescheduledLoads               187961                       # Number of loads that were rescheduled (Count)
system.cpu.lsq0.blockedByCache                    261                       # Number of times an access to memory failed due to the cache being blocked (Count)
system.cpu.lsq0.loadToUse::samples           81517748                       # Distribution of cycle latency between the first time a load is issued and its completion (Unspecified)
system.cpu.lsq0.loadToUse::mean              2.985257                       # Distribution of cycle latency between the first time a load is issued and its completion (Unspecified)
system.cpu.lsq0.loadToUse::stdev             2.209104                       # Distribution of cycle latency between the first time a load is issued and its completion (Unspecified)
system.cpu.lsq0.loadToUse::0-9               81326033     99.76%     99.76% # Distribution of cycle latency between the first time a load is issued and its completion (Unspecified)
system.cpu.lsq0.loadToUse::10-19                  213      0.00%     99.77% # Distribution of cycle latency between the first time a load is issued and its completion (Unspecified)
system.cpu.lsq0.loadToUse::20-29                47037      0.06%     99.82% # Distribution of cycle latency between the first time a load is issued and its completion (Unspecified)
system.cpu.lsq0.loadToUse::30-39                   13      0.00%     99.82% # Distribution of cycle latency between the first time a load is issued and its completion (Unspecified)
system.cpu.lsq0.loadToUse::40-49               140973      0.17%    100.00% # Distribution of cycle latency between the first time a load is issued and its completion (Unspecified)
system.cpu.lsq0.loadToUse::50-59                   13      0.00%    100.00% # Distribution of cycle latency between the first time a load is issued and its completion (Unspecified)
system.cpu.lsq0.loadToUse::60-69                   19      0.00%    100.00% # Distribution of cycle latency between the first time a load is issued and its completion (Unspecified)
system.cpu.lsq0.loadToUse::70-79                   26      0.00%    100.00% # Distribution of cycle latency between the first time a load is issued and its completion (Unspecified)
[...]
system.mem_ctrls.dram.bwWrite::total           288166                       # Write bandwidth from this memory ((Byte/Second))
system.mem_ctrls.dram.bwTotal::writebacks       288166                       # Total bandwidth to/from this memory ((Byte/Second))
system.mem_ctrls.dram.bwTotal::cpu.inst        745661                       # Total bandwidth to/from this memory ((Byte/Second))
system.mem_ctrls.dram.bwTotal::cpu.data       1235791                       # Total bandwidth to/from this memory ((Byte/Second))
system.mem_ctrls.dram.bwTotal::total          2269619                       # Total bandwidth to/from this memory ((Byte/Second))
system.mem_ctrls.dram.readBursts                 3205                       # Number of DRAM read bursts (Count)
system.mem_ctrls.dram.writeBursts                1135                       # Number of DRAM write bursts (Count)
system.mem_ctrls.dram.perBankRdBursts::0          219                       # Per bank write bursts (Count)
system.mem_ctrls.dram.perBankRdBursts::1          242                       # Per bank write bursts (Count)
system.mem_ctrls.dram.perBankRdBursts::2          222                       # Per bank write bursts (Count)
system.mem_ctrls.dram.perBankRdBursts::3          298                       # Per bank write bursts (Count)
system.mem_ctrls.dram.perBankRdBursts::4          353                       # Per bank write bursts (Count)
system.mem_ctrls.dram.perBankRdBursts::5          282                       # Per bank write bursts (Count)
system.mem_ctrls.dram.perBankRdBursts::6          242                       # Per bank write bursts (Count)
system.mem_ctrls.dram.perBankRdBursts::7          185                       # Per bank write bursts (Count)
system.mem_ctrls.dram.perBankRdBursts::8          179                       # Per bank write bursts (Count)
system.mem_ctrls.dram.perBankRdBursts::9          191                       # Per bank write bursts (Count)
system.mem_ctrls.dram.perBankRdBursts::10          121                       # Per bank write bursts (Count)
system.mem_ctrls.dram.perBankRdBursts::11           95                       # Per bank write bursts (Count)
system.mem_ctrls.dram.perBankRdBursts::12          106                       # Per bank write bursts (Count)
system.mem_ctrls.dram.perBankRdBursts::13          190                       # Per bank write bursts (Count)
system.mem_ctrls.dram.perBankRdBursts::14          167                       # Per bank write bursts (Count)
system.mem_ctrls.dram.perBankRdBursts::15          113                       # Per bank write bursts (Count)
system.mem_ctrls.dram.perBankWrBursts::0           44                       # Per bank write bursts (Count)
system.mem_ctrls.dram.perBankWrBursts::1            2                       # Per bank write bursts (Count)
system.mem_ctrls.dram.perBankWrBursts::2           65                       # Per bank write bursts (Count)
system.mem_ctrls.dram.perBankWrBursts::3          161                       # Per bank write bursts (Count)
system.mem_ctrls.dram.perBankWrBursts::4          101                       # Per bank write bursts (Count)
system.mem_ctrls.dram.perBankWrBursts::5          117                       # Per bank write bursts (Count)
system.mem_ctrls.dram.perBankWrBursts::6          131                       # Per bank write bursts (Count)
system.mem_ctrls.dram.perBankWrBursts::7           23                       # Per bank write bursts (Count)
system.mem_ctrls.dram.perBankWrBursts::8           73                       # Per bank write bursts (Count)
system.mem_ctrls.dram.perBankWrBursts::9           68                       # Per bank write bursts (Count)
system.mem_ctrls.dram.perBankWrBursts::10           40                       # Per bank write bursts (Count)
system.mem_ctrls.dram.perBankWrBursts::11           38                       # Per bank write bursts (Count)
system.mem_ctrls.dram.perBankWrBursts::12           48                       # Per bank write bursts (Count)
system.mem_ctrls.dram.perBankWrBursts::13           84                       # Per bank write bursts (Count)
system.mem_ctrls.dram.perBankWrBursts::14           49                       # Per bank write bursts (Count)
system.mem_ctrls.dram.perBankWrBursts::15           91                       # Per bank write bursts (Count)
system.mem_ctrls.dram.totQLat                37530750                       # Total ticks spent queuing (Tick)
system.mem_ctrls.dram.totBusLat              16025000                       # Total ticks spent in databus transfers (Tick)
system.mem_ctrls.dram.totMemAccLat           97624500                       # Total ticks spent from burst creation until serviced by the DRAM (Tick)
system.mem_ctrls.dram.avgQLat                11710.06                       # Average queueing delay per DRAM burst ((Tick/Count))
system.mem_ctrls.dram.avgBusLat               5000.00                       # Average bus latency per DRAM burst ((Tick/Count))
system.mem_ctrls.dram.avgMemAccLat           30460.06                       # Average memory access latency per DRAM burst ((Tick/Count))
system.mem_ctrls.dram.readRowHits                2621                       # Number of row buffer hits during reads (Count)
system.mem_ctrls.dram.writeRowHits                889                       # Number of row buffer hits during writes (Count)
system.mem_ctrls.dram.readRowHitRate            81.78                       # Row buffer hit rate for reads (Ratio)
system.mem_ctrls.dram.writeRowHitRate           78.33                       # Row buffer hit rate for writes (Ratio)
system.mem_ctrls.dram.bytesPerActivate::samples          822                       # Bytes accessed per row activation (Byte)
system.mem_ctrls.dram.bytesPerActivate::mean   335.805353                       # Bytes accessed per row activation (Byte)
system.mem_ctrls.dram.bytesPerActivate::gmean   208.158068                       # Bytes accessed per row activation (Byte)
system.mem_ctrls.dram.bytesPerActivate::stdev   327.198869                       # Bytes accessed per row activation (Byte)
system.mem_ctrls.dram.bytesPerActivate::0-127          237     28.83%     28.83% # Bytes accessed per row activation (Byte)
system.mem_ctrls.dram.bytesPerActivate::128-255          217     26.40%     55.23% # Bytes accessed per row activation (Byte)
system.mem_ctrls.dram.bytesPerActivate::256-383           94     11.44%     66.67% # Bytes accessed per row activation (Byte)
system.mem_ctrls.dram.bytesPerActivate::384-511           70      8.52%     75.18% # Bytes accessed per row activation (Byte)
system.mem_ctrls.dram.bytesPerActivate::512-639           42      5.11%     80.29% # Bytes accessed per row activation (Byte)
system.mem_ctrls.dram.bytesPerActivate::640-767           31      3.77%     84.06% # Bytes accessed per row activation (Byte)
system.mem_ctrls.dram.bytesPerActivate::768-895           13      1.58%     85.64% # Bytes accessed per row activation (Byte)
system.mem_ctrls.dram.bytesPerActivate::896-1023           20      2.43%     88.08% # Bytes accessed per row activation (Byte)
system.mem_ctrls.dram.bytesPerActivate::1024-1151           98     11.92%    100.00% # Bytes accessed per row activation (Byte)
system.mem_ctrls.dram.bytesPerActivate::total          822                       # Bytes accessed per row activation (Byte)
system.mem_ctrls.dram.bytesRead                205120                       # Total bytes read (Byte)
system.mem_ctrls.dram.bytesWritten              72640                       # Total bytes written (Byte)
system.mem_ctrls.dram.avgRdBW                1.973448                       # Average DRAM read bandwidth in MiBytes/s ((Byte/Second))
system.mem_ctrls.dram.avgWrBW                0.698865                       # Average DRAM write bandwidth in MiBytes/s ((Byte/Second))
system.mem_ctrls.dram.peakBW                 12800.00                       # Theoretical peak bandwidth in MiByte/s ((Byte/Second))
system.mem_ctrls.dram.busUtil                    0.02                       # Data bus utilization in percentage (Ratio)
system.mem_ctrls.dram.busUtilRead                0.02                       # Data bus utilization in percentage for reads (Ratio)
system.mem_ctrls.dram.busUtilWrite               0.01                       # Data bus utilization in percentage for writes (Ratio)
system.mem_ctrls.dram.pageHitRate               80.88                       # Row buffer hit rate, read and write combined (Ratio)
system.mem_ctrls.dram.power_state.pwrStateResidencyTicks::UNDEFINED 103939931000                       # Cumulative time (in ticks) in various power states (Tick)
system.mem_ctrls.dram.rank0.actEnergy         3384360                       # Energy for activate commands per rank (pJ) (Joule)
system.mem_ctrls.dram.rank0.preEnergy         1787445                       # Energy for precharge commands per rank (pJ) (Joule)
system.mem_ctrls.dram.rank0.readEnergy       14587020                       # Energy for read commands per rank (pJ) (Joule)
system.mem_ctrls.dram.rank0.writeEnergy       3361680                       # Energy for write commands per rank (pJ) (Joule)
system.mem_ctrls.dram.rank0.refreshEnergy 8204829360.000001                       # Energy for refresh commands per rank (pJ) (Joule)
system.mem_ctrls.dram.rank0.actBackEnergy   1602935760                       # Energy for active background per rank (pJ) (Joule)
system.mem_ctrls.dram.rank0.preBackEnergy  38563092960                       # Energy for precharge background per rank (pJ) (Joule)
system.mem_ctrls.dram.rank0.actPowerDownEnergy            0                       # Energy for active power-down per rank (pJ) (Joule)
system.mem_ctrls.dram.rank0.prePowerDownEnergy            0                       # Energy for precharge power-down per rank (pJ) (Joule)
system.mem_ctrls.dram.rank0.selfRefreshEnergy            0                       # Energy for self refresh per rank (pJ) (Joule)
system.mem_ctrls.dram.rank0.totalEnergy   48393978585                       # Total energy per rank (pJ) (Joule)
system.mem_ctrls.dram.rank0.averagePower   465.595639                       # Core power per rank (mW) (Watt)
system.mem_ctrls.dram.rank0.totalIdleTime            0                       # Total Idle time Per DRAM Rank (Tick)
system.mem_ctrls.dram.rank0.pwrStateTime::IDLE 100240567000                       # Time in different power states (Tick)
system.mem_ctrls.dram.rank0.pwrStateTime::REF   3470740000                       # Time in different power states (Tick)
system.mem_ctrls.dram.rank0.pwrStateTime::SREF            0                       # Time in different power states (Tick)
system.mem_ctrls.dram.rank0.pwrStateTime::PRE_PDN            0                       # Time in different power states (Tick)
system.mem_ctrls.dram.rank0.pwrStateTime::ACT    228624000                       # Time in different power states (Tick)
system.mem_ctrls.dram.rank0.pwrStateTime::ACT_PDN            0                       # Time in different power states (Tick)
system.mem_ctrls.dram.rank1.actEnergy         2541840                       # Energy for activate commands per rank (pJ) (Joule)
system.mem_ctrls.dram.rank1.preEnergy         1332045                       # Energy for precharge commands per rank (pJ) (Joule)
system.mem_ctrls.dram.rank1.readEnergy        8296680                       # Energy for read commands per rank (pJ) (Joule)
system.mem_ctrls.dram.rank1.writeEnergy       2563020                       # Energy for write commands per rank (pJ) (Joule)
system.mem_ctrls.dram.rank1.refreshEnergy 8204829360.000001                       # Energy for refresh commands per rank (pJ) (Joule)
system.mem_ctrls.dram.rank1.actBackEnergy   1573210260                       # Energy for active background per rank (pJ) (Joule)
system.mem_ctrls.dram.rank1.preBackEnergy  38588124960                       # Energy for precharge background per rank (pJ) (Joule)
system.mem_ctrls.dram.rank1.actPowerDownEnergy            0                       # Energy for active power-down per rank (pJ) (Joule)
system.mem_ctrls.dram.rank1.prePowerDownEnergy            0                       # Energy for precharge power-down per rank (pJ) (Joule)
system.mem_ctrls.dram.rank1.selfRefreshEnergy            0                       # Energy for self refresh per rank (pJ) (Joule)
system.mem_ctrls.dram.rank1.totalEnergy   48380898165                       # Total energy per rank (pJ) (Joule)
system.mem_ctrls.dram.rank1.averagePower   465.469793                       # Core power per rank (mW) (Watt)
system.mem_ctrls.dram.rank1.totalIdleTime            0                       # Total Idle time Per DRAM Rank (Tick)
system.mem_ctrls.dram.rank1.pwrStateTime::IDLE 100305964000                       # Time in different power states (Tick)
system.mem_ctrls.dram.rank1.pwrStateTime::REF   3470740000                       # Time in different power states (Tick)
system.mem_ctrls.dram.rank1.pwrStateTime::SREF            0                       # Time in different power states (Tick)
system.mem_ctrls.dram.rank1.pwrStateTime::PRE_PDN            0                       # Time in different power states (Tick)
system.mem_ctrls.dram.rank1.pwrStateTime::ACT    163227000                       # Time in different power states (Tick)
system.mem_ctrls.dram.rank1.pwrStateTime::ACT_PDN            0                       # Time in different power states (Tick)
system.mem_ctrls.power_state.pwrStateResidencyTicks::UNDEFINED 103939931000                       # Cumulative time (in ticks) in various power states (Tick)
system.membus.transDist::ReadResp                2532                       # Transaction distribution (Count)
system.membus.transDist::WritebackDirty           468                       # Transaction distribution (Count)
system.membus.transDist::WritebackClean           699                       # Transaction distribution (Count)
system.membus.transDist::CleanEvict              1027                       # Transaction distribution (Count)
system.membus.transDist::ReadExReq                686                       # Transaction distribution (Count)
system.membus.transDist::ReadExResp               686                       # Transaction distribution (Count)
system.membus.transDist::ReadCleanReq            1212                       # Transaction distribution (Count)
system.membus.transDist::ReadSharedReq           1321                       # Transaction distribution (Count)
system.membus.pktCount_system.cpu.icache.mem_side_port::system.mem_ctrls.port         3122                       # Packet count per connected requestor and responder (Count)
system.membus.pktCount_system.cpu.icache.mem_side_port::total         3122                       # Packet count per connected requestor and responder (Count)
system.membus.pktCount_system.cpu.dcache.mem_side_port::system.mem_ctrls.port         5509                       # Packet count per connected requestor and responder (Count)
system.membus.pktCount_system.cpu.dcache.mem_side_port::total         5509                       # Packet count per connected requestor and responder (Count)
system.membus.pktCount::total                    8631                       # Packet count per connected requestor and responder (Count)
system.membus.pktSize_system.cpu.icache.mem_side_port::system.mem_ctrls.port       122240                       # Cumulative packet size per connected requestor and responder (Byte)
system.membus.pktSize_system.cpu.icache.mem_side_port::total       122240                       # Cumulative packet size per connected requestor and responder (Byte)
system.membus.pktSize_system.cpu.dcache.mem_side_port::system.mem_ctrls.port       158400                       # Cumulative packet size per connected requestor and responder (Byte)
system.membus.pktSize_system.cpu.dcache.mem_side_port::total       158400                       # Cumulative packet size per connected requestor and responder (Byte)
system.membus.pktSize::total                   280640                       # Cumulative packet size per connected requestor and responder (Byte)
system.membus.snoops                                0                       # Total snoops (Count)
system.membus.snoopTraffic                          0                       # Total snoop traffic (Byte)
system.membus.snoopFanout::samples               3219                       # Request fanout histogram (Count)
system.membus.snoopFanout::mean              0.003107                       # Request fanout histogram (Count)
system.membus.snoopFanout::stdev             0.055658                       # Request fanout histogram (Count)
system.membus.snoopFanout::underflows               0      0.00%      0.00% # Request fanout histogram (Count)
system.membus.snoopFanout::0                     3209     99.69%     99.69% # Request fanout histogram (Count)
system.membus.snoopFanout::1                       10      0.31%    100.00% # Request fanout histogram (Count)
system.membus.snoopFanout::2                        0      0.00%    100.00% # Request fanout histogram (Count)
system.membus.snoopFanout::3                        0      0.00%    100.00% # Request fanout histogram (Count)
system.membus.snoopFanout::4                        0      0.00%    100.00% # Request fanout histogram (Count)
system.membus.snoopFanout::overflows                0      0.00%    100.00% # Request fanout histogram (Count)
system.membus.snoopFanout::min_value                0                       # Request fanout histogram (Count)
system.membus.snoopFanout::max_value                1                       # Request fanout histogram (Count)
system.membus.snoopFanout::total                 3219                       # Request fanout histogram (Count)
system.membus.power_state.pwrStateResidencyTicks::UNDEFINED 103939931000                       # Cumulative time (in ticks) in various power states (Tick)
system.membus.reqLayer2.occupancy            10586000                       # Layer occupancy (ticks) (Tick)
system.membus.reqLayer2.utilization               0.0                       # Layer utilization (Ratio)
system.membus.respLayer1.occupancy            6417500                       # Layer occupancy (ticks) (Tick)
system.membus.respLayer1.utilization              0.0                       # Layer utilization (Ratio)
system.membus.respLayer2.occupancy           10615250                       # Layer occupancy (ticks) (Tick)
system.membus.respLayer2.utilization              0.0                       # Layer utilization (Ratio)
system.membus.snoop_filter.totRequests           5413                       # Total number of requests made to the snoop filter. (Count)
system.membus.snoop_filter.hitSingleRequests         2196                       # Number of requests hitting in the snoop filter with a single holder of the requested data. (Count)
system.membus.snoop_filter.hitMultiRequests            8                       # Number of requests hitting in the snoop filter with multiple (>1) holders of the requested data. (Count)
system.membus.snoop_filter.totSnoops                0                       # Total number of snoops made to the snoop filter. (Count)
system.membus.snoop_filter.hitSingleSnoops            0                       # Number of snoops hitting in the snoop filter with a single holder of the requested data. (Count)
system.membus.snoop_filter.hitMultiSnoops            0                       # Number of snoops hitting in the snoop filter with multiple (>1) holders of the requested data. (Count)
system.voltage_domain.voltage                       1                       # Voltage in Volts (Volt)
system.workload.inst.arm                            0                       # number of arm instructions executed (Count)
system.workload.inst.quiesce                        0                       # number of quiesce instructions executed (Count)

---------- End Simulation Statistics   ----------
